data_image0
_chemical_formula_structural       Bi3Au6
_chemical_formula_sum              "Bi3 Au6"
_cell_length_a       8.64879
_cell_length_b       8.64879
_cell_length_c       3.14478
_cell_angle_alpha    90
_cell_angle_beta     90
_cell_angle_gamma    120

_space_group_name_H-M_alt    "P 1"
_space_group_IT_number       1

loop_
  _space_group_symop_operation_xyz
  'x, y, z'

loop_
  _atom_site_type_symbol
  _atom_site_label
  _atom_site_symmetry_multiplicity
  _atom_site_fract_x
  _atom_site_fract_y
  _atom_site_fract_z
  _atom_site_occupancy
  Bi  Bi1       1.0  0.66667  0.33333  0.00000  1.0000
  Bi  Bi2       1.0  0.33333  0.66667  0.00000  1.0000
  Bi  Bi3       1.0  0.00000  0.00000  0.50000  1.0000
  Au  Au1       1.0  0.64345  0.00000  0.50000  1.0000
  Au  Au2       1.0  0.35655  0.35655  0.50000  1.0000
  Au  Au3       1.0  0.00000  0.64345  0.50000  1.0000
  Au  Au4       1.0  0.00000  0.31111  0.00000  1.0000
  Au  Au5       1.0  0.68889  0.68889  0.00000  1.0000
  Au  Au6       1.0  0.31111  0.00000  0.00000  1.0000
