data_image0
_chemical_formula_structural       Bi10Au6
_chemical_formula_sum              "Bi10 Au6"
_cell_length_a       8.79613
_cell_length_b       8.79613
_cell_length_c       8.79613
_cell_angle_alpha    97.5193
_cell_angle_beta     97.5193
_cell_angle_gamma    137.585

_space_group_name_H-M_alt    "P 1"
_space_group_IT_number       1

loop_
  _space_group_symop_operation_xyz
  'x, y, z'

loop_
  _atom_site_type_symbol
  _atom_site_label
  _atom_site_symmetry_multiplicity
  _atom_site_fract_x
  _atom_site_fract_y
  _atom_site_fract_z
  _atom_site_occupancy
  Bi  Bi1       1.0  0.57425  0.28533  0.85958  1.0000
  Bi  Bi2       1.0  0.42575  0.71467  0.14042  1.0000
  Bi  Bi3       1.0  0.71467  0.57425  0.28892  1.0000
  Bi  Bi4       1.0  0.28533  0.42575  0.71108  1.0000
  Bi  Bi5       1.0  0.92575  0.78533  0.71108  1.0000
  Bi  Bi6       1.0  0.21467  0.92575  0.14042  1.0000
  Bi  Bi7       1.0  0.25000  0.75000  0.50000  1.0000
  Bi  Bi8       1.0  0.75000  0.25000  0.50000  1.0000
  Bi  Bi9       1.0  0.07425  0.21467  0.28892  1.0000
  Bi  Bi10      1.0  0.78533  0.07425  0.85958  1.0000
  Au  Au1       1.0  0.83771  0.33771  0.17543  1.0000
  Au  Au2       1.0  0.66229  0.83771  0.50000  1.0000
  Au  Au3       1.0  0.33771  0.16229  0.50000  1.0000
  Au  Au4       1.0  0.16229  0.66229  0.82457  1.0000
  Au  Au5       1.0  0.75000  0.75000  0.00000  1.0000
  Au  Au6       1.0  0.25000  0.25000  0.00000  1.0000
