data_image0
_chemical_formula_structural       Au6Bi2
_chemical_formula_sum              "Au6 Bi2"
_cell_length_a       4.6931
_cell_length_b       6.09037
_cell_length_c       6.02698
_cell_angle_alpha    90
_cell_angle_beta     90
_cell_angle_gamma    90

_space_group_name_H-M_alt    "P 1"
_space_group_IT_number       1

loop_
  _space_group_symop_operation_xyz
  'x, y, z'

loop_
  _atom_site_type_symbol
  _atom_site_label
  _atom_site_symmetry_multiplicity
  _atom_site_fract_x
  _atom_site_fract_y
  _atom_site_fract_z
  _atom_site_occupancy
  Au  Au1       1.0  0.00000  0.35292  0.25234  1.0000
  Au  Au2       1.0  0.00000  0.35292  0.74766  1.0000
  Au  Au3       1.0  0.50000  0.64708  0.24766  1.0000
  Au  Au4       1.0  0.50000  0.64708  0.75234  1.0000
  Au  Au5       1.0  0.00000  0.76740  0.50000  1.0000
  Au  Au6       1.0  0.50000  0.23260  0.00000  1.0000
  Bi  Bi1       1.0  0.00000  0.88773  0.00000  1.0000
  Bi  Bi2       1.0  0.50000  0.11227  0.50000  1.0000
