data_image0
_chemical_formula_structural       Bi2Au3
_chemical_formula_sum              "Bi2 Au3"
_cell_length_a       8.1424
_cell_length_b       8.1424
_cell_length_c       8.1424
_cell_angle_alpha    30.7641
_cell_angle_beta     30.7641
_cell_angle_gamma    30.7641

_space_group_name_H-M_alt    "P 1"
_space_group_IT_number       1

loop_
  _space_group_symop_operation_xyz
  'x, y, z'

loop_
  _atom_site_type_symbol
  _atom_site_label
  _atom_site_symmetry_multiplicity
  _atom_site_fract_x
  _atom_site_fract_y
  _atom_site_fract_z
  _atom_site_occupancy
  Bi  Bi1       1.0  0.59495  0.59495  0.59495  1.0000
  Bi  Bi2       1.0  0.40505  0.40505  0.40505  1.0000
  Au  Au1       1.0  0.00000  0.00000  0.00000  1.0000
  Au  Au2       1.0  0.19495  0.19495  0.19495  1.0000
  Au  Au3       1.0  0.80505  0.80505  0.80505  1.0000
