data_image0
_chemical_formula_structural       Bi3Au4
_chemical_formula_sum              "Bi3 Au4"
_cell_length_a       8.73655
_cell_length_b       8.73655
_cell_length_c       7.06362
_cell_angle_alpha    63.4198
_cell_angle_beta     63.4198
_cell_angle_gamma    24.7677

_space_group_name_H-M_alt    "P 1"
_space_group_IT_number       1

loop_
  _space_group_symop_operation_xyz
  'x, y, z'

loop_
  _atom_site_type_symbol
  _atom_site_label
  _atom_site_symmetry_multiplicity
  _atom_site_fract_x
  _atom_site_fract_y
  _atom_site_fract_z
  _atom_site_occupancy
  Bi  Bi1       1.0  0.00000  0.00000  0.00000  1.0000
  Bi  Bi2       1.0  0.25429  0.25429  0.75737  1.0000
  Bi  Bi3       1.0  0.74571  0.74571  0.24263  1.0000
  Au  Au1       1.0  0.13059  0.13059  0.55751  1.0000
  Au  Au2       1.0  0.86941  0.86941  0.44249  1.0000
  Au  Au3       1.0  0.61777  0.61777  0.07856  1.0000
  Au  Au4       1.0  0.38223  0.38223  0.92144  1.0000
