data_image0
_chemical_formula_structural       Bi2Au4
_chemical_formula_sum              "Bi2 Au4"
_cell_length_a       4.80634
_cell_length_b       4.80634
_cell_length_c       14.3908
_cell_angle_alpha    90
_cell_angle_beta     90
_cell_angle_gamma    120

_space_group_name_H-M_alt    "P 1"
_space_group_IT_number       1

loop_
  _space_group_symop_operation_xyz
  'x, y, z'

loop_
  _atom_site_type_symbol
  _atom_site_label
  _atom_site_symmetry_multiplicity
  _atom_site_fract_x
  _atom_site_fract_y
  _atom_site_fract_z
  _atom_site_occupancy
  Bi  Bi1       1.0  0.66667  0.33333  0.18241  1.0000
  Bi  Bi2       1.0  0.33333  0.66667  0.81759  1.0000
  Au  Au1       1.0  0.33333  0.66667  0.20259  1.0000
  Au  Au2       1.0  0.66667  0.33333  0.99181  1.0000
  Au  Au3       1.0  0.33333  0.66667  0.00819  1.0000
  Au  Au4       1.0  0.66667  0.33333  0.79741  1.0000
