data_image0
_chemical_formula_structural       Bi6Au4
_chemical_formula_sum              "Bi6 Au4"
_cell_length_a       7.93061
_cell_length_b       7.93061
_cell_length_c       4.2525
_cell_angle_alpha    90
_cell_angle_beta     90
_cell_angle_gamma    90

_space_group_name_H-M_alt    "P 1"
_space_group_IT_number       1

loop_
  _space_group_symop_operation_xyz
  'x, y, z'

loop_
  _atom_site_type_symbol
  _atom_site_label
  _atom_site_symmetry_multiplicity
  _atom_site_fract_x
  _atom_site_fract_y
  _atom_site_fract_z
  _atom_site_occupancy
  Bi  Bi1       1.0  0.00000  0.00000  0.00000  1.0000
  Bi  Bi2       1.0  0.50000  0.50000  0.00000  1.0000
  Bi  Bi3       1.0  0.17252  0.67252  0.55194  1.0000
  Bi  Bi4       1.0  0.32748  0.17252  0.44806  1.0000
  Bi  Bi5       1.0  0.67252  0.82748  0.44806  1.0000
  Bi  Bi6       1.0  0.82748  0.32748  0.55194  1.0000
  Au  Au1       1.0  0.37097  0.87097  0.00573  1.0000
  Au  Au2       1.0  0.12903  0.37097  0.99427  1.0000
  Au  Au3       1.0  0.87097  0.62903  0.99427  1.0000
  Au  Au4       1.0  0.62903  0.12903  0.00573  1.0000
