data_image0
_chemical_formula_structural       Au8Bi4
_chemical_formula_sum              "Au8 Bi4"
_cell_length_a       9.46577
_cell_length_b       4.28292
_cell_length_c       8.31686
_cell_angle_alpha    58.694
_cell_angle_beta     90
_cell_angle_gamma    90

_space_group_name_H-M_alt    "P 1"
_space_group_IT_number       1

loop_
  _space_group_symop_operation_xyz
  'x, y, z'

loop_
  _atom_site_type_symbol
  _atom_site_label
  _atom_site_symmetry_multiplicity
  _atom_site_fract_x
  _atom_site_fract_y
  _atom_site_fract_z
  _atom_site_occupancy
  Au  Au1       1.0  0.40247  0.43668  0.50726  1.0000
  Au  Au2       1.0  0.59753  0.43668  0.00726  1.0000
  Au  Au3       1.0  0.34521  0.66783  0.77528  1.0000
  Au  Au4       1.0  0.86131  0.21744  0.22902  1.0000
  Au  Au5       1.0  0.65479  0.66783  0.27528  1.0000
  Au  Au6       1.0  0.13869  0.21744  0.72902  1.0000
  Au  Au7       1.0  0.94512  0.81691  0.63242  1.0000
  Au  Au8       1.0  0.05488  0.81691  0.13242  1.0000
  Bi  Bi1       1.0  0.36260  0.88247  0.05807  1.0000
  Bi  Bi2       1.0  0.63740  0.88247  0.55807  1.0000
  Bi  Bi3       1.0  0.82061  0.06196  0.88125  1.0000
  Bi  Bi4       1.0  0.17939  0.06196  0.38125  1.0000
