data_image0
_chemical_formula_structural       Bi4Au12
_chemical_formula_sum              "Bi4 Au12"
_cell_length_a       9.26969
_cell_length_b       9.26969
_cell_length_c       6.19119
_cell_angle_alpha    90
_cell_angle_beta     90
_cell_angle_gamma    140.707

_space_group_name_H-M_alt    "P 1"
_space_group_IT_number       1

loop_
  _space_group_symop_operation_xyz
  'x, y, z'

loop_
  _atom_site_type_symbol
  _atom_site_label
  _atom_site_symmetry_multiplicity
  _atom_site_fract_x
  _atom_site_fract_y
  _atom_site_fract_z
  _atom_site_occupancy
  Bi  Bi1       1.0  0.62558  0.37442  0.00000  1.0000
  Bi  Bi2       1.0  0.37442  0.62558  0.00000  1.0000
  Bi  Bi3       1.0  0.12558  0.87442  0.50000  1.0000
  Bi  Bi4       1.0  0.87442  0.12558  0.50000  1.0000
  Au  Au1       1.0  0.75004  0.75004  0.24944  1.0000
  Au  Au2       1.0  0.25004  0.25004  0.25056  1.0000
  Au  Au3       1.0  0.74996  0.74996  0.74944  1.0000
  Au  Au4       1.0  0.37538  0.62462  0.50000  1.0000
  Au  Au5       1.0  0.99973  0.49973  0.75000  1.0000
  Au  Au6       1.0  0.87538  0.12462  0.00000  1.0000
  Au  Au7       1.0  0.00027  0.50027  0.25000  1.0000
  Au  Au8       1.0  0.24996  0.24996  0.75056  1.0000
  Au  Au9       1.0  0.62462  0.37538  0.50000  1.0000
  Au  Au10      1.0  0.12462  0.87538  0.00000  1.0000
  Au  Au11      1.0  0.50027  0.00027  0.25000  1.0000
  Au  Au12      1.0  0.49973  0.99973  0.75000  1.0000
