data_image0
_chemical_formula_structural       Bi8Au16
_chemical_formula_sum              "Bi8 Au16"
_cell_length_a       5.73201
_cell_length_b       8.10336
_cell_length_c       11.4489
_cell_angle_alpha    90
_cell_angle_beta     90
_cell_angle_gamma    90

_space_group_name_H-M_alt    "P 1"
_space_group_IT_number       1

loop_
  _space_group_symop_operation_xyz
  'x, y, z'

loop_
  _atom_site_type_symbol
  _atom_site_label
  _atom_site_symmetry_multiplicity
  _atom_site_fract_x
  _atom_site_fract_y
  _atom_site_fract_z
  _atom_site_occupancy
  Bi  Bi1       1.0  0.50150  0.87468  0.12470  1.0000
  Bi  Bi2       1.0  0.99850  0.62532  0.62470  1.0000
  Bi  Bi3       1.0  0.99850  0.37468  0.87530  1.0000
  Bi  Bi4       1.0  0.50150  0.12532  0.37530  1.0000
  Bi  Bi5       1.0  0.49850  0.12532  0.87530  1.0000
  Bi  Bi6       1.0  0.00150  0.37468  0.37530  1.0000
  Bi  Bi7       1.0  0.00150  0.62532  0.12470  1.0000
  Bi  Bi8       1.0  0.49850  0.87468  0.62470  1.0000
  Au  Au1       1.0  0.49679  0.50000  0.25000  1.0000
  Au  Au2       1.0  0.00321  0.00000  0.75000  1.0000
  Au  Au3       1.0  0.50321  0.50000  0.75000  1.0000
  Au  Au4       1.0  0.99679  0.00000  0.25000  1.0000
  Au  Au5       1.0  0.25468  0.75358  0.37486  1.0000
  Au  Au6       1.0  0.24532  0.74642  0.87486  1.0000
  Au  Au7       1.0  0.24532  0.25358  0.62514  1.0000
  Au  Au8       1.0  0.25468  0.24642  0.12514  1.0000
  Au  Au9       1.0  0.74532  0.24642  0.62514  1.0000
  Au  Au10      1.0  0.75468  0.25358  0.12514  1.0000
  Au  Au11      1.0  0.75468  0.74642  0.37486  1.0000
  Au  Au12      1.0  0.74532  0.75358  0.87486  1.0000
  Au  Au13      1.0  0.50000  0.50000  0.00000  1.0000
  Au  Au14      1.0  0.00000  0.00000  0.50000  1.0000
  Au  Au15      1.0  0.00000  0.00000  0.00000  1.0000
  Au  Au16      1.0  0.50000  0.50000  0.50000  1.0000
