data_image0
_chemical_formula_structural       Bi9Au13
_chemical_formula_sum              "Bi9 Au13"
_cell_length_a       7.37646
_cell_length_b       7.37646
_cell_length_c       11.3414
_cell_angle_alpha    67.435
_cell_angle_beta     67.435
_cell_angle_gamma    77.8206

_space_group_name_H-M_alt    "P 1"
_space_group_IT_number       1

loop_
  _space_group_symop_operation_xyz
  'x, y, z'

loop_
  _atom_site_type_symbol
  _atom_site_label
  _atom_site_symmetry_multiplicity
  _atom_site_fract_x
  _atom_site_fract_y
  _atom_site_fract_z
  _atom_site_occupancy
  Bi  Bi1       1.0  0.29377  0.29377  0.15160  1.0000
  Bi  Bi2       1.0  0.80102  0.18799  0.27962  1.0000
  Bi  Bi3       1.0  0.80562  0.80562  0.16658  1.0000
  Bi  Bi4       1.0  0.19438  0.19438  0.83342  1.0000
  Bi  Bi5       1.0  0.50000  0.50000  0.50000  1.0000
  Bi  Bi6       1.0  0.70623  0.70623  0.84840  1.0000
  Bi  Bi7       1.0  0.18799  0.80102  0.27962  1.0000
  Bi  Bi8       1.0  0.81201  0.19898  0.72038  1.0000
  Bi  Bi9       1.0  0.19898  0.81201  0.72038  1.0000
  Au  Au1       1.0  0.54605  0.06968  0.60770  1.0000
  Au  Au2       1.0  0.06968  0.54605  0.60770  1.0000
  Au  Au3       1.0  0.54278  0.54278  0.17104  1.0000
  Au  Au4       1.0  0.72539  0.72539  0.55568  1.0000
  Au  Au5       1.0  0.45395  0.93032  0.39230  1.0000
  Au  Au6       1.0  0.75573  0.24427  0.00000  1.0000
  Au  Au7       1.0  0.27461  0.27461  0.44432  1.0000
  Au  Au8       1.0  0.45722  0.45722  0.82896  1.0000
  Au  Au9       1.0  0.24427  0.75573  0.00000  1.0000
  Au  Au10      1.0  0.00000  0.00000  0.50000  1.0000
  Au  Au11      1.0  0.93032  0.45395  0.39230  1.0000
  Au  Au12      1.0  0.00000  0.50000  0.00000  1.0000
  Au  Au13      1.0  0.50000  0.00000  0.00000  1.0000
