data_image0
_chemical_formula_structural       Bi6Au10
_chemical_formula_sum              "Bi6 Au10"
_cell_length_a       4.4451
_cell_length_b       5.93962
_cell_length_c       14.2809
_cell_angle_alpha    90
_cell_angle_beta     90
_cell_angle_gamma    90

_space_group_name_H-M_alt    "P 1"
_space_group_IT_number       1

loop_
  _space_group_symop_operation_xyz
  'x, y, z'

loop_
  _atom_site_type_symbol
  _atom_site_label
  _atom_site_symmetry_multiplicity
  _atom_site_fract_x
  _atom_site_fract_y
  _atom_site_fract_z
  _atom_site_occupancy
  Bi  Bi1       1.0  0.50000  0.22861  0.83758  1.0000
  Bi  Bi2       1.0  0.50000  0.72861  0.66242  1.0000
  Bi  Bi3       1.0  0.00000  0.50000  0.50000  1.0000
  Bi  Bi4       1.0  0.00000  0.00000  0.00000  1.0000
  Bi  Bi5       1.0  0.50000  0.77139  0.16242  1.0000
  Bi  Bi6       1.0  0.50000  0.27139  0.33758  1.0000
  Au  Au1       1.0  0.50000  0.77557  0.40679  1.0000
  Au  Au2       1.0  0.50000  0.22443  0.59321  1.0000
  Au  Au3       1.0  0.00000  0.11056  0.71048  1.0000
  Au  Au4       1.0  0.50000  0.72443  0.90679  1.0000
  Au  Au5       1.0  0.00000  0.38944  0.21048  1.0000
  Au  Au6       1.0  0.00000  0.88944  0.28952  1.0000
  Au  Au7       1.0  0.00000  0.61056  0.78952  1.0000
  Au  Au8       1.0  0.00000  0.50000  0.00000  1.0000
  Au  Au9       1.0  0.00000  0.00000  0.50000  1.0000
  Au  Au10      1.0  0.50000  0.27557  0.09321  1.0000
