data_image0
_chemical_formula_structural       BiAu2
_chemical_formula_sum              "Bi1 Au2"
_cell_length_a       4.2659
_cell_length_b       4.2659
_cell_length_c       4.70565
_cell_angle_alpha    89.1082
_cell_angle_beta     89.1082
_cell_angle_gamma    58.7059

_space_group_name_H-M_alt    "P 1"
_space_group_IT_number       1

loop_
  _space_group_symop_operation_xyz
  'x, y, z'

loop_
  _atom_site_type_symbol
  _atom_site_label
  _atom_site_symmetry_multiplicity
  _atom_site_fract_x
  _atom_site_fract_y
  _atom_site_fract_z
  _atom_site_occupancy
  Bi  Bi1       1.0  0.66593  0.33407  0.50000  1.0000
  Au  Au1       1.0  0.33346  0.99939  0.85319  1.0000
  Au  Au2       1.0  0.00061  0.66654  0.14681  1.0000
