data_image0
_chemical_formula_structural       Bi4Br6
_chemical_formula_sum              "Bi4 Br6"
_cell_length_a       8.20769
_cell_length_b       8.20769
_cell_length_c       8.20769
_cell_angle_alpha    131.372
_cell_angle_beta     106.865
_cell_angle_gamma    92.8056

_space_group_name_H-M_alt    "P 1"
_space_group_IT_number       1

loop_
  _space_group_symop_operation_xyz
  'x, y, z'

loop_
  _atom_site_type_symbol
  _atom_site_label
  _atom_site_symmetry_multiplicity
  _atom_site_fract_x
  _atom_site_fract_y
  _atom_site_fract_z
  _atom_site_occupancy
  Bi  Bi1       1.0  0.60434  0.31621  0.28812  1.0000
  Bi  Bi2       1.0  0.39566  0.68379  0.71188  1.0000
  Bi  Bi3       1.0  0.97191  0.18379  0.78812  1.0000
  Bi  Bi4       1.0  0.02809  0.81621  0.21188  1.0000
  Br  Br1       1.0  0.37324  0.85386  0.51938  1.0000
  Br  Br2       1.0  0.62676  0.14614  0.48062  1.0000
  Br  Br3       1.0  0.33448  0.35386  0.98062  1.0000
  Br  Br4       1.0  0.66552  0.64614  0.01938  1.0000
  Br  Br5       1.0  0.00000  0.75000  0.75000  1.0000
  Br  Br6       1.0  0.00000  0.25000  0.25000  1.0000
