data_image0
_chemical_formula_structural       Bi4Au4
_chemical_formula_sum              "Bi4 Au4"
_cell_length_a       5.95026
_cell_length_b       5.95026
_cell_length_c       5.95026
_cell_angle_alpha    90
_cell_angle_beta     90
_cell_angle_gamma    90

_space_group_name_H-M_alt    "P 1"
_space_group_IT_number       1

loop_
  _space_group_symop_operation_xyz
  'x, y, z'

loop_
  _atom_site_type_symbol
  _atom_site_label
  _atom_site_symmetry_multiplicity
  _atom_site_fract_x
  _atom_site_fract_y
  _atom_site_fract_z
  _atom_site_occupancy
  Bi  Bi1       1.0  0.75037  0.74963  0.25037  1.0000
  Bi  Bi2       1.0  0.74963  0.25037  0.75037  1.0000
  Bi  Bi3       1.0  0.25037  0.75037  0.74963  1.0000
  Bi  Bi4       1.0  0.24963  0.24963  0.24963  1.0000
  Au  Au1       1.0  0.24930  0.25070  0.74930  1.0000
  Au  Au2       1.0  0.25070  0.74930  0.24930  1.0000
  Au  Au3       1.0  0.74930  0.24930  0.25070  1.0000
  Au  Au4       1.0  0.75070  0.75070  0.75070  1.0000
