data_image0
_chemical_formula_structural       Bi2Au4Bi
_chemical_formula_sum              "Bi3 Au4"
_cell_length_a       10.2483
_cell_length_b       10.2483
_cell_length_c       10.2483
_cell_angle_alpha    156.365
_cell_angle_beta     156.365
_cell_angle_gamma    33.6702

_space_group_name_H-M_alt    "P 1"
_space_group_IT_number       1

loop_
  _space_group_symop_operation_xyz
  'x, y, z'

loop_
  _atom_site_type_symbol
  _atom_site_label
  _atom_site_symmetry_multiplicity
  _atom_site_fract_x
  _atom_site_fract_y
  _atom_site_fract_z
  _atom_site_occupancy
  Bi  Bi1       1.0  0.38854  0.38854  1.00000  1.0000
  Bi  Bi2       1.0  0.61146  0.61146  0.00000  1.0000
  Au  Au1       1.0  0.85044  0.85044  0.00000  1.0000
  Au  Au2       1.0  0.14956  0.14956  0.00000  1.0000
  Au  Au3       1.0  0.75000  0.25000  0.50000  1.0000
  Au  Au4       1.0  0.25000  0.75000  0.50000  1.0000
  Bi  Bi3       1.0  0.00000  0.00000  0.00000  1.0000
