data_image0
_chemical_formula_structural       Au4Bi2
_chemical_formula_sum              "Au4 Bi2"
_cell_length_a       6.08124
_cell_length_b       6.08124
_cell_length_c       6.08124
_cell_angle_alpha    125.57
_cell_angle_beta     125.57
_cell_angle_gamma    80.5965

_space_group_name_H-M_alt    "P 1"
_space_group_IT_number       1

loop_
  _space_group_symop_operation_xyz
  'x, y, z'

loop_
  _atom_site_type_symbol
  _atom_site_label
  _atom_site_symmetry_multiplicity
  _atom_site_fract_x
  _atom_site_fract_y
  _atom_site_fract_z
  _atom_site_occupancy
  Au  Au1       1.0  0.32232  0.82232  0.14465  1.0000
  Au  Au2       1.0  0.17768  0.32232  0.50000  1.0000
  Au  Au3       1.0  0.82232  0.67768  0.50000  1.0000
  Au  Au4       1.0  0.67768  0.17768  0.85535  1.0000
  Bi  Bi1       1.0  0.75000  0.75000  0.00000  1.0000
  Bi  Bi2       1.0  0.25000  0.25000  0.00000  1.0000
