data_image0
_chemical_formula_structural       Bi2Au2
_chemical_formula_sum              "Bi2 Au2"
_cell_length_a       5.90344
_cell_length_b       5.90344
_cell_length_c       4.33789
_cell_angle_alpha    90
_cell_angle_beta     90
_cell_angle_gamma    138.508

_space_group_name_H-M_alt    "P 1"
_space_group_IT_number       1

loop_
  _space_group_symop_operation_xyz
  'x, y, z'

loop_
  _atom_site_type_symbol
  _atom_site_label
  _atom_site_symmetry_multiplicity
  _atom_site_fract_x
  _atom_site_fract_y
  _atom_site_fract_z
  _atom_site_occupancy
  Bi  Bi1       1.0  0.14261  0.85739  0.75000  1.0000
  Bi  Bi2       1.0  0.85739  0.14261  0.25000  1.0000
  Au  Au1       1.0  0.41045  0.58955  0.75000  1.0000
  Au  Au2       1.0  0.58955  0.41045  0.25000  1.0000
