data_image0
_chemical_formula_structural       Bi8Au8
_chemical_formula_sum              "Bi8 Au8"
_cell_length_a       8.06629
_cell_length_b       8.06629
_cell_length_c       7.02697
_cell_angle_alpha    90
_cell_angle_beta     90
_cell_angle_gamma    90

_space_group_name_H-M_alt    "P 1"
_space_group_IT_number       1

loop_
  _space_group_symop_operation_xyz
  'x, y, z'

loop_
  _atom_site_type_symbol
  _atom_site_label
  _atom_site_symmetry_multiplicity
  _atom_site_fract_x
  _atom_site_fract_y
  _atom_site_fract_z
  _atom_site_occupancy
  Bi  Bi1       1.0  0.58086  0.67558  0.00000  1.0000
  Bi  Bi2       1.0  0.32442  0.58086  0.50000  1.0000
  Bi  Bi3       1.0  0.67558  0.41914  0.50000  1.0000
  Bi  Bi4       1.0  0.41914  0.32442  0.00000  1.0000
  Bi  Bi5       1.0  0.50000  0.00000  0.50000  1.0000
  Bi  Bi6       1.0  0.00000  0.50000  0.00000  1.0000
  Bi  Bi7       1.0  0.00000  0.00000  0.75000  1.0000
  Bi  Bi8       1.0  0.00000  0.00000  0.25000  1.0000
  Au  Au1       1.0  0.17285  0.30367  0.69775  1.0000
  Au  Au2       1.0  0.69633  0.17285  0.19775  1.0000
  Au  Au3       1.0  0.30367  0.82715  0.19775  1.0000
  Au  Au4       1.0  0.82715  0.69633  0.69775  1.0000
  Au  Au5       1.0  0.82715  0.69633  0.30225  1.0000
  Au  Au6       1.0  0.30367  0.82715  0.80225  1.0000
  Au  Au7       1.0  0.69633  0.17285  0.80225  1.0000
  Au  Au8       1.0  0.17285  0.30367  0.30225  1.0000
