data_image0
_chemical_formula_structural       Bi2Au4
_chemical_formula_sum              "Bi2 Au4"
_cell_length_a       6.07434
_cell_length_b       6.07434
_cell_length_c       6.07434
_cell_angle_alpha    125.423
_cell_angle_beta     125.423
_cell_angle_gamma    80.8385

_space_group_name_H-M_alt    "P 1"
_space_group_IT_number       1

loop_
  _space_group_symop_operation_xyz
  'x, y, z'

loop_
  _atom_site_type_symbol
  _atom_site_label
  _atom_site_symmetry_multiplicity
  _atom_site_fract_x
  _atom_site_fract_y
  _atom_site_fract_z
  _atom_site_occupancy
  Bi  Bi1       1.0  0.75000  0.75000  0.00000  1.0000
  Bi  Bi2       1.0  0.25000  0.25000  0.00000  1.0000
  Au  Au1       1.0  0.32304  0.17696  0.50000  1.0000
  Au  Au2       1.0  0.82304  0.32304  0.14608  1.0000
  Au  Au3       1.0  0.67696  0.82304  0.50000  1.0000
  Au  Au4       1.0  0.17696  0.67696  0.85392  1.0000
