data_image0
_chemical_formula_structural       BiAu4
_chemical_formula_sum              "Bi1 Au4"
_cell_length_a       5.42584
_cell_length_b       5.42584
_cell_length_c       5.42584
_cell_angle_alpha    97.9585
_cell_angle_beta     97.9585
_cell_angle_gamma    136.31

_space_group_name_H-M_alt    "P 1"
_space_group_IT_number       1

loop_
  _space_group_symop_operation_xyz
  'x, y, z'

loop_
  _atom_site_type_symbol
  _atom_site_label
  _atom_site_symmetry_multiplicity
  _atom_site_fract_x
  _atom_site_fract_y
  _atom_site_fract_z
  _atom_site_occupancy
  Bi  Bi1       1.0  0.00000  0.00000  0.00000  1.0000
  Au  Au1       1.0  0.60710  0.18575  0.79284  1.0000
  Au  Au2       1.0  0.39290  0.81425  0.20716  1.0000
  Au  Au3       1.0  0.81425  0.60710  0.42135  1.0000
  Au  Au4       1.0  0.18575  0.39290  0.57865  1.0000
