data_image0
_chemical_formula_structural       Bi2C4
_chemical_formula_sum              "Bi2 C4"
_cell_length_a       4.94752
_cell_length_b       4.94752
_cell_length_c       4.94752
_cell_angle_alpha    116.373
_cell_angle_beta     116.373
_cell_angle_gamma    96.4066

_space_group_name_H-M_alt    "P 1"
_space_group_IT_number       1

loop_
  _space_group_symop_operation_xyz
  'x, y, z'

loop_
  _atom_site_type_symbol
  _atom_site_label
  _atom_site_symmetry_multiplicity
  _atom_site_fract_x
  _atom_site_fract_y
  _atom_site_fract_z
  _atom_site_occupancy
  Bi  Bi1       1.0  0.75000  0.75000  0.00000  1.0000
  Bi  Bi2       1.0  0.25000  0.25000  0.00000  1.0000
  C   C1        1.0  0.58766  0.08766  0.67532  1.0000
  C   C2        1.0  0.08766  0.41234  0.50000  1.0000
  C   C3        1.0  0.91234  0.58766  0.50000  1.0000
  C   C4        1.0  0.41234  0.91234  0.32468  1.0000
