data_image0
_chemical_formula_structural       Bi4Cl12
_chemical_formula_sum              "Bi4 Cl12"
_cell_length_a       9.0316
_cell_length_b       9.0316
_cell_length_c       6.68529
_cell_angle_alpha    90
_cell_angle_beta     90
_cell_angle_gamma    136.111

_space_group_name_H-M_alt    "P 1"
_space_group_IT_number       1

loop_
  _space_group_symop_operation_xyz
  'x, y, z'

loop_
  _atom_site_type_symbol
  _atom_site_label
  _atom_site_symmetry_multiplicity
  _atom_site_fract_x
  _atom_site_fract_y
  _atom_site_fract_z
  _atom_site_occupancy
  Bi  Bi1       1.0  0.63546  0.36454  0.00000  1.0000
  Bi  Bi2       1.0  0.36454  0.63546  0.00000  1.0000
  Bi  Bi3       1.0  0.13546  0.86454  0.50000  1.0000
  Bi  Bi4       1.0  0.86454  0.13546  0.50000  1.0000
  Cl  Cl1       1.0  0.66340  0.66340  0.16146  1.0000
  Cl  Cl2       1.0  0.16340  0.16340  0.33854  1.0000
  Cl  Cl3       1.0  0.83660  0.83660  0.66146  1.0000
  Cl  Cl4       1.0  0.37797  0.62203  0.50000  1.0000
  Cl  Cl5       1.0  0.99754  0.49754  0.75000  1.0000
  Cl  Cl6       1.0  0.87797  0.12203  0.00000  1.0000
  Cl  Cl7       1.0  0.00246  0.50246  0.25000  1.0000
  Cl  Cl8       1.0  0.33660  0.33660  0.83854  1.0000
  Cl  Cl9       1.0  0.62203  0.37797  0.50000  1.0000
  Cl  Cl10      1.0  0.12203  0.87797  0.00000  1.0000
  Cl  Cl11      1.0  0.50246  0.00246  0.25000  1.0000
  Cl  Cl12      1.0  0.49754  0.99754  0.75000  1.0000
