data_image0
_chemical_formula_structural       Bi2Br6
_chemical_formula_sum              "Bi2 Br6"
_cell_length_a       9.62981
_cell_length_b       9.62981
_cell_length_c       9.62981
_cell_angle_alpha    150.623
_cell_angle_beta     150.623
_cell_angle_gamma    42.0273

_space_group_name_H-M_alt    "P 1"
_space_group_IT_number       1

loop_
  _space_group_symop_operation_xyz
  'x, y, z'

loop_
  _atom_site_type_symbol
  _atom_site_label
  _atom_site_symmetry_multiplicity
  _atom_site_fract_x
  _atom_site_fract_y
  _atom_site_fract_z
  _atom_site_occupancy
  Bi  Bi1       1.0  0.86884  0.86884  0.00000  1.0000
  Bi  Bi2       1.0  0.13116  0.13116  0.00000  1.0000
  Br  Br1       1.0  0.00000  0.50000  0.50000  1.0000
  Br  Br2       1.0  0.50000  0.00000  0.50000  1.0000
  Br  Br3       1.0  0.75000  0.25000  0.50000  1.0000
  Br  Br4       1.0  0.25000  0.75000  0.50000  1.0000
  Br  Br5       1.0  0.62918  0.62918  0.00000  1.0000
  Br  Br6       1.0  0.37082  0.37082  0.00000  1.0000
