data_image0
_chemical_formula_structural       Bi8F16
_chemical_formula_sum              "Bi8 F16"
_cell_length_a       6.6719
_cell_length_b       7.05519
_cell_length_c       9.28398
_cell_angle_alpha    90
_cell_angle_beta     90
_cell_angle_gamma    90

_space_group_name_H-M_alt    "P 1"
_space_group_IT_number       1

loop_
  _space_group_symop_operation_xyz
  'x, y, z'

loop_
  _atom_site_type_symbol
  _atom_site_label
  _atom_site_symmetry_multiplicity
  _atom_site_fract_x
  _atom_site_fract_y
  _atom_site_fract_z
  _atom_site_occupancy
  Bi  Bi1       1.0  0.46587  0.76467  0.13197  1.0000
  Bi  Bi2       1.0  0.03413  0.73533  0.63197  1.0000
  Bi  Bi3       1.0  0.03413  0.26467  0.86803  1.0000
  Bi  Bi4       1.0  0.46587  0.23533  0.36803  1.0000
  Bi  Bi5       1.0  0.53413  0.23533  0.86803  1.0000
  Bi  Bi6       1.0  0.96587  0.26467  0.36803  1.0000
  Bi  Bi7       1.0  0.96587  0.73533  0.13197  1.0000
  Bi  Bi8       1.0  0.53413  0.76467  0.63197  1.0000
  F   F1        1.0  0.35466  0.50000  0.25000  1.0000
  F   F2        1.0  0.14534  0.00000  0.75000  1.0000
  F   F3        1.0  0.64534  0.50000  0.75000  1.0000
  F   F4        1.0  0.85466  0.00000  0.25000  1.0000
  F   F5        1.0  0.46199  0.88057  0.37928  1.0000
  F   F6        1.0  0.03801  0.61943  0.87928  1.0000
  F   F7        1.0  0.03801  0.38057  0.62072  1.0000
  F   F8        1.0  0.46199  0.11943  0.12072  1.0000
  F   F9        1.0  0.53801  0.11943  0.62072  1.0000
  F   F10       1.0  0.96199  0.38057  0.12072  1.0000
  F   F11       1.0  0.96199  0.61943  0.37928  1.0000
  F   F12       1.0  0.53801  0.88057  0.87928  1.0000
  F   F13       1.0  0.50000  0.50000  0.00000  1.0000
  F   F14       1.0  0.00000  0.00000  0.50000  1.0000
  F   F15       1.0  0.00000  0.00000  0.00000  1.0000
  F   F16       1.0  0.50000  0.50000  0.50000  1.0000
