data_image0
_chemical_formula_structural       Bi6Br20
_chemical_formula_sum              "Bi6 Br20"
_cell_length_a       18.9899
_cell_length_b       18.9899
_cell_length_c       3.86047
_cell_angle_alpha    90
_cell_angle_beta     90
_cell_angle_gamma    120

_space_group_name_H-M_alt    "P 1"
_space_group_IT_number       1

loop_
  _space_group_symop_operation_xyz
  'x, y, z'

loop_
  _atom_site_type_symbol
  _atom_site_label
  _atom_site_symmetry_multiplicity
  _atom_site_fract_x
  _atom_site_fract_y
  _atom_site_fract_z
  _atom_site_occupancy
  Bi  Bi1       1.0  0.63611  0.74564  0.25000  1.0000
  Bi  Bi2       1.0  0.25436  0.89047  0.25000  1.0000
  Bi  Bi3       1.0  0.10953  0.36389  0.25000  1.0000
  Bi  Bi4       1.0  0.36389  0.25436  0.75000  1.0000
  Bi  Bi5       1.0  0.74564  0.10953  0.75000  1.0000
  Bi  Bi6       1.0  0.89047  0.63611  0.75000  1.0000
  Br  Br1       1.0  0.84088  0.07645  0.25000  1.0000
  Br  Br2       1.0  0.92355  0.76443  0.25000  1.0000
  Br  Br3       1.0  0.23557  0.15912  0.25000  1.0000
  Br  Br4       1.0  0.15912  0.92355  0.75000  1.0000
  Br  Br5       1.0  0.07645  0.23557  0.75000  1.0000
  Br  Br6       1.0  0.76443  0.84088  0.75000  1.0000
  Br  Br7       1.0  0.61706  0.01421  0.25000  1.0000
  Br  Br8       1.0  0.98579  0.60285  0.25000  1.0000
  Br  Br9       1.0  0.39715  0.38294  0.25000  1.0000
  Br  Br10      1.0  0.38294  0.98579  0.75000  1.0000
  Br  Br11      1.0  0.01421  0.39715  0.75000  1.0000
  Br  Br12      1.0  0.60285  0.61706  0.75000  1.0000
  Br  Br13      1.0  0.78018  0.23835  0.25000  1.0000
  Br  Br14      1.0  0.76165  0.54182  0.25000  1.0000
  Br  Br15      1.0  0.45818  0.21982  0.25000  1.0000
  Br  Br16      1.0  0.21982  0.76165  0.75000  1.0000
  Br  Br17      1.0  0.23835  0.45818  0.75000  1.0000
  Br  Br18      1.0  0.54182  0.78018  0.75000  1.0000
  Br  Br19      1.0  0.66667  0.33333  0.75000  1.0000
  Br  Br20      1.0  0.33333  0.66667  0.25000  1.0000
