data_image0
_chemical_formula_structural       Bi6Br4
_chemical_formula_sum              "Bi6 Br4"
_cell_length_a       7.06166
_cell_length_b       7.06166
_cell_length_c       7.27013
_cell_angle_alpha    90
_cell_angle_beta     90
_cell_angle_gamma    90

_space_group_name_H-M_alt    "P 1"
_space_group_IT_number       1

loop_
  _space_group_symop_operation_xyz
  'x, y, z'

loop_
  _atom_site_type_symbol
  _atom_site_label
  _atom_site_symmetry_multiplicity
  _atom_site_fract_x
  _atom_site_fract_y
  _atom_site_fract_z
  _atom_site_occupancy
  Bi  Bi1       1.0  0.00000  0.00000  0.00000  1.0000
  Bi  Bi2       1.0  0.50000  0.50000  0.00000  1.0000
  Bi  Bi3       1.0  0.15706  0.65706  0.76576  1.0000
  Bi  Bi4       1.0  0.34294  0.15706  0.23424  1.0000
  Bi  Bi5       1.0  0.65706  0.84294  0.23424  1.0000
  Bi  Bi6       1.0  0.84294  0.34294  0.76576  1.0000
  Br  Br1       1.0  0.19100  0.69100  0.37339  1.0000
  Br  Br2       1.0  0.30900  0.19100  0.62661  1.0000
  Br  Br3       1.0  0.69100  0.80900  0.62661  1.0000
  Br  Br4       1.0  0.80900  0.30900  0.37339  1.0000
