data_image0
_chemical_formula_structural       BiBr2
_chemical_formula_sum              "Bi1 Br2"
_cell_length_a       7.76783
_cell_length_b       7.76783
_cell_length_c       7.76783
_cell_angle_alpha    152.895
_cell_angle_beta     152.895
_cell_angle_gamma    38.7082

_space_group_name_H-M_alt    "P 1"
_space_group_IT_number       1

loop_
  _space_group_symop_operation_xyz
  'x, y, z'

loop_
  _atom_site_type_symbol
  _atom_site_label
  _atom_site_symmetry_multiplicity
  _atom_site_fract_x
  _atom_site_fract_y
  _atom_site_fract_z
  _atom_site_occupancy
  Bi  Bi1       1.0  0.00000  0.00000  0.00000  1.0000
  Br  Br1       1.0  0.63049  0.63049  0.00000  1.0000
  Br  Br2       1.0  0.36951  0.36951  0.00000  1.0000
