data_image0
_chemical_formula_structural       Bi2Cl4
_chemical_formula_sum              "Bi2 Cl4"
_cell_length_a       5.93683
_cell_length_b       5.93683
_cell_length_c       5.93683
_cell_angle_alpha    107.448
_cell_angle_beta     107.448
_cell_angle_gamma    113.598

_space_group_name_H-M_alt    "P 1"
_space_group_IT_number       1

loop_
  _space_group_symop_operation_xyz
  'x, y, z'

loop_
  _atom_site_type_symbol
  _atom_site_label
  _atom_site_symmetry_multiplicity
  _atom_site_fract_x
  _atom_site_fract_y
  _atom_site_fract_z
  _atom_site_occupancy
  Bi  Bi1       1.0  0.75000  0.75000  0.00000  1.0000
  Bi  Bi2       1.0  0.25000  0.25000  0.00000  1.0000
  Cl  Cl1       1.0  0.31789  0.18211  0.50000  1.0000
  Cl  Cl2       1.0  0.81789  0.31789  0.13577  1.0000
  Cl  Cl3       1.0  0.68211  0.81789  0.50000  1.0000
  Cl  Cl4       1.0  0.18211  0.68211  0.86423  1.0000
