data_image0
_chemical_formula_structural       Cl4Bi4
_chemical_formula_sum              "Cl4 Bi4"
_cell_length_a       6.09012
_cell_length_b       6.09012
_cell_length_c       6.09012
_cell_angle_alpha    90
_cell_angle_beta     90
_cell_angle_gamma    90

_space_group_name_H-M_alt    "P 1"
_space_group_IT_number       1

loop_
  _space_group_symop_operation_xyz
  'x, y, z'

loop_
  _atom_site_type_symbol
  _atom_site_label
  _atom_site_symmetry_multiplicity
  _atom_site_fract_x
  _atom_site_fract_y
  _atom_site_fract_z
  _atom_site_occupancy
  Cl  Cl1       1.0  0.88613  0.61387  0.38613  1.0000
  Cl  Cl2       1.0  0.61387  0.38613  0.88613  1.0000
  Cl  Cl3       1.0  0.38613  0.88613  0.61387  1.0000
  Cl  Cl4       1.0  0.11387  0.11387  0.11387  1.0000
  Bi  Bi1       1.0  0.14222  0.35778  0.64222  1.0000
  Bi  Bi2       1.0  0.35778  0.64222  0.14222  1.0000
  Bi  Bi3       1.0  0.64222  0.14222  0.35778  1.0000
  Bi  Bi4       1.0  0.85778  0.85778  0.85778  1.0000
