data_image0
_chemical_formula_structural       Bi3Cl4
_chemical_formula_sum              "Bi3 Cl4"
_cell_length_a       8.04996
_cell_length_b       8.04996
_cell_length_c       8.32509
_cell_angle_alpha    44.9956
_cell_angle_beta     44.9956
_cell_angle_gamma    44.0764

_space_group_name_H-M_alt    "P 1"
_space_group_IT_number       1

loop_
  _space_group_symop_operation_xyz
  'x, y, z'

loop_
  _atom_site_type_symbol
  _atom_site_label
  _atom_site_symmetry_multiplicity
  _atom_site_fract_x
  _atom_site_fract_y
  _atom_site_fract_z
  _atom_site_occupancy
  Bi  Bi1       1.0  0.00000  0.00000  0.00000  1.0000
  Bi  Bi2       1.0  0.31851  0.31851  0.58693  1.0000
  Bi  Bi3       1.0  0.68149  0.68149  0.41307  1.0000
  Cl  Cl1       1.0  0.14268  0.14268  0.50666  1.0000
  Cl  Cl2       1.0  0.85732  0.85732  0.49334  1.0000
  Cl  Cl3       1.0  0.63770  0.63770  0.17122  1.0000
  Cl  Cl4       1.0  0.36230  0.36230  0.82878  1.0000
