data_image0
_chemical_formula_structural       Bi8Cl16
_chemical_formula_sum              "Bi8 Cl16"
_cell_length_a       6.91623
_cell_length_b       8.07367
_cell_length_c       12.6637
_cell_angle_alpha    90
_cell_angle_beta     90
_cell_angle_gamma    90

_space_group_name_H-M_alt    "P 1"
_space_group_IT_number       1

loop_
  _space_group_symop_operation_xyz
  'x, y, z'

loop_
  _atom_site_type_symbol
  _atom_site_label
  _atom_site_symmetry_multiplicity
  _atom_site_fract_x
  _atom_site_fract_y
  _atom_site_fract_z
  _atom_site_occupancy
  Bi  Bi1       1.0  0.49634  0.77243  0.14719  1.0000
  Bi  Bi2       1.0  0.00366  0.72757  0.64719  1.0000
  Bi  Bi3       1.0  0.00366  0.27243  0.85281  1.0000
  Bi  Bi4       1.0  0.49634  0.22757  0.35281  1.0000
  Bi  Bi5       1.0  0.50366  0.22757  0.85281  1.0000
  Bi  Bi6       1.0  0.99634  0.27243  0.35281  1.0000
  Bi  Bi7       1.0  0.99634  0.72757  0.14719  1.0000
  Bi  Bi8       1.0  0.50366  0.77243  0.64719  1.0000
  Cl  Cl1       1.0  0.40478  0.50000  0.25000  1.0000
  Cl  Cl2       1.0  0.09522  0.00000  0.75000  1.0000
  Cl  Cl3       1.0  0.59522  0.50000  0.75000  1.0000
  Cl  Cl4       1.0  0.90478  0.00000  0.25000  1.0000
  Cl  Cl5       1.0  0.46769  0.87991  0.35740  1.0000
  Cl  Cl6       1.0  0.03231  0.62009  0.85740  1.0000
  Cl  Cl7       1.0  0.03231  0.37991  0.64260  1.0000
  Cl  Cl8       1.0  0.46769  0.12009  0.14260  1.0000
  Cl  Cl9       1.0  0.53231  0.12009  0.64260  1.0000
  Cl  Cl10      1.0  0.96769  0.37991  0.14260  1.0000
  Cl  Cl11      1.0  0.96769  0.62009  0.35740  1.0000
  Cl  Cl12      1.0  0.53231  0.87991  0.85740  1.0000
  Cl  Cl13      1.0  0.50000  0.50000  0.00000  1.0000
  Cl  Cl14      1.0  0.00000  0.00000  0.50000  1.0000
  Cl  Cl15      1.0  0.00000  0.00000  0.00000  1.0000
  Cl  Cl16      1.0  0.50000  0.50000  0.50000  1.0000
