data_image0
_chemical_formula_structural       Bi2Br4
_chemical_formula_sum              "Bi2 Br4"
_cell_length_a       6.20186
_cell_length_b       6.20186
_cell_length_c       6.20186
_cell_angle_alpha    107.25
_cell_angle_beta     107.25
_cell_angle_gamma    114.01

_space_group_name_H-M_alt    "P 1"
_space_group_IT_number       1

loop_
  _space_group_symop_operation_xyz
  'x, y, z'

loop_
  _atom_site_type_symbol
  _atom_site_label
  _atom_site_symmetry_multiplicity
  _atom_site_fract_x
  _atom_site_fract_y
  _atom_site_fract_z
  _atom_site_occupancy
  Bi  Bi1       1.0  0.25000  0.25000  0.00000  1.0000
  Bi  Bi2       1.0  0.75000  0.75000  0.00000  1.0000
  Br  Br1       1.0  0.67813  0.17813  0.85627  1.0000
  Br  Br2       1.0  0.32187  0.82187  0.14373  1.0000
  Br  Br3       1.0  0.82187  0.67813  0.50000  1.0000
  Br  Br4       1.0  0.17813  0.32187  0.50000  1.0000
