data_image0
_chemical_formula_structural       BiCl2
_chemical_formula_sum              "Bi1 Cl2"
_cell_length_a       7.47851
_cell_length_b       7.47851
_cell_length_c       7.47851
_cell_angle_alpha    153.239
_cell_angle_beta     153.239
_cell_angle_gamma    38.2073

_space_group_name_H-M_alt    "P 1"
_space_group_IT_number       1

loop_
  _space_group_symop_operation_xyz
  'x, y, z'

loop_
  _atom_site_type_symbol
  _atom_site_label
  _atom_site_symmetry_multiplicity
  _atom_site_fract_x
  _atom_site_fract_y
  _atom_site_fract_z
  _atom_site_occupancy
  Bi  Bi1       1.0  0.00000  0.00000  0.00000  1.0000
  Cl  Cl1       1.0  0.63283  0.63283  0.00000  1.0000
  Cl  Cl2       1.0  0.36717  0.36717  0.00000  1.0000
