data_image0
_chemical_formula_structural       Br4Bi4
_chemical_formula_sum              "Br4 Bi4"
_cell_length_a       6.30508
_cell_length_b       6.30508
_cell_length_c       6.30508
_cell_angle_alpha    90
_cell_angle_beta     90
_cell_angle_gamma    90

_space_group_name_H-M_alt    "P 1"
_space_group_IT_number       1

loop_
  _space_group_symop_operation_xyz
  'x, y, z'

loop_
  _atom_site_type_symbol
  _atom_site_label
  _atom_site_symmetry_multiplicity
  _atom_site_fract_x
  _atom_site_fract_y
  _atom_site_fract_z
  _atom_site_occupancy
  Br  Br1       1.0  0.87962  0.62038  0.37962  1.0000
  Br  Br2       1.0  0.62038  0.37962  0.87962  1.0000
  Br  Br3       1.0  0.37962  0.87962  0.62038  1.0000
  Br  Br4       1.0  0.12038  0.12038  0.12038  1.0000
  Bi  Bi1       1.0  0.13915  0.36085  0.63915  1.0000
  Bi  Bi2       1.0  0.36085  0.63915  0.13915  1.0000
  Bi  Bi3       1.0  0.63915  0.13915  0.36085  1.0000
  Bi  Bi4       1.0  0.86085  0.86085  0.86085  1.0000
