data_image0
_chemical_formula_structural       Br10Bi4
_chemical_formula_sum              "Br10 Bi4"
_cell_length_a       11.7961
_cell_length_b       11.7961
_cell_length_c       8.14711
_cell_angle_alpha    49.1136
_cell_angle_beta     49.1136
_cell_angle_gamma    50.4404

_space_group_name_H-M_alt    "P 1"
_space_group_IT_number       1

loop_
  _space_group_symop_operation_xyz
  'x, y, z'

loop_
  _atom_site_type_symbol
  _atom_site_label
  _atom_site_symmetry_multiplicity
  _atom_site_fract_x
  _atom_site_fract_y
  _atom_site_fract_z
  _atom_site_occupancy
  Br  Br1       1.0  0.18313  0.81687  0.00000  1.0000
  Br  Br2       1.0  0.81687  0.18313  0.00000  1.0000
  Br  Br3       1.0  0.60794  0.60794  0.16392  1.0000
  Br  Br4       1.0  0.39206  0.39206  0.83608  1.0000
  Br  Br5       1.0  0.10971  0.10971  0.40466  1.0000
  Br  Br6       1.0  0.89029  0.89029  0.59534  1.0000
  Br  Br7       1.0  0.42767  0.06693  0.75711  1.0000
  Br  Br8       1.0  0.93307  0.57233  0.24289  1.0000
  Br  Br9       1.0  0.06693  0.42767  0.75711  1.0000
  Br  Br10      1.0  0.57233  0.93307  0.24289  1.0000
  Bi  Bi1       1.0  0.06771  0.06771  0.13003  1.0000
  Bi  Bi2       1.0  0.93229  0.93229  0.86997  1.0000
  Bi  Bi3       1.0  0.61717  0.61717  0.47557  1.0000
  Bi  Bi4       1.0  0.38283  0.38283  0.52443  1.0000
