data_image0
_chemical_formula_structural       Bi2Br4
_chemical_formula_sum              "Bi2 Br4"
_cell_length_a       8.67854
_cell_length_b       8.67854
_cell_length_c       7.32637
_cell_angle_alpha    90
_cell_angle_beta     90
_cell_angle_gamma    152.085

_space_group_name_H-M_alt    "P 1"
_space_group_IT_number       1

loop_
  _space_group_symop_operation_xyz
  'x, y, z'

loop_
  _atom_site_type_symbol
  _atom_site_label
  _atom_site_symmetry_multiplicity
  _atom_site_fract_x
  _atom_site_fract_y
  _atom_site_fract_z
  _atom_site_occupancy
  Bi  Bi1       1.0  0.02799  0.02799  0.75000  1.0000
  Bi  Bi2       1.0  0.97201  0.97201  0.25000  1.0000
  Br  Br1       1.0  0.41977  0.65799  0.75000  1.0000
  Br  Br2       1.0  0.65799  0.41977  0.75000  1.0000
  Br  Br3       1.0  0.34201  0.58023  0.25000  1.0000
  Br  Br4       1.0  0.58023  0.34201  0.25000  1.0000
