data_image0
_chemical_formula_structural       Bi4F6
_chemical_formula_sum              "Bi4 F6"
_cell_length_a       6.52509
_cell_length_b       6.52509
_cell_length_c       6.52509
_cell_angle_alpha    127.773
_cell_angle_beta     122.216
_cell_angle_gamma    81.6254

_space_group_name_H-M_alt    "P 1"
_space_group_IT_number       1

loop_
  _space_group_symop_operation_xyz
  'x, y, z'

loop_
  _atom_site_type_symbol
  _atom_site_label
  _atom_site_symmetry_multiplicity
  _atom_site_fract_x
  _atom_site_fract_y
  _atom_site_fract_z
  _atom_site_occupancy
  Bi  Bi1       1.0  0.61150  0.32671  0.28479  1.0000
  Bi  Bi2       1.0  0.38850  0.67329  0.71521  1.0000
  Bi  Bi3       1.0  0.95808  0.17329  0.78479  1.0000
  Bi  Bi4       1.0  0.04192  0.82671  0.21521  1.0000
  F   F1        1.0  0.51784  0.89875  0.61909  1.0000
  F   F2        1.0  0.48216  0.10125  0.38091  1.0000
  F   F3        1.0  0.27966  0.39875  0.88091  1.0000
  F   F4        1.0  0.72034  0.60125  0.11909  1.0000
  F   F5        1.0  1.00000  0.75000  0.75000  1.0000
  F   F6        1.0  0.00000  0.25000  0.25000  1.0000
