data_image0
_chemical_formula_structural       Bi2F4
_chemical_formula_sum              "Bi2 F4"
_cell_length_a       5.21563
_cell_length_b       5.21563
_cell_length_c       5.21563
_cell_angle_alpha    109.349
_cell_angle_beta     109.349
_cell_angle_gamma    109.716

_space_group_name_H-M_alt    "P 1"
_space_group_IT_number       1

loop_
  _space_group_symop_operation_xyz
  'x, y, z'

loop_
  _atom_site_type_symbol
  _atom_site_label
  _atom_site_symmetry_multiplicity
  _atom_site_fract_x
  _atom_site_fract_y
  _atom_site_fract_z
  _atom_site_occupancy
  Bi  Bi1       1.0  0.75000  0.75000  0.00000  1.0000
  Bi  Bi2       1.0  0.25000  0.25000  0.00000  1.0000
  F   F1        1.0  0.71325  0.21325  0.92651  1.0000
  F   F2        1.0  0.21325  0.28675  0.50000  1.0000
  F   F3        1.0  0.78675  0.71325  0.50000  1.0000
  F   F4        1.0  0.28675  0.78675  0.07349  1.0000
