data_image0
_chemical_formula_structural       BiHg3
_chemical_formula_sum              "Bi1 Hg3"
_cell_length_a       9.74427
_cell_length_b       9.74427
_cell_length_c       9.74427
_cell_angle_alpha    21.886
_cell_angle_beta     21.886
_cell_angle_gamma    21.886

_space_group_name_H-M_alt    "P 1"
_space_group_IT_number       1

loop_
  _space_group_symop_operation_xyz
  'x, y, z'

loop_
  _atom_site_type_symbol
  _atom_site_label
  _atom_site_symmetry_multiplicity
  _atom_site_fract_x
  _atom_site_fract_y
  _atom_site_fract_z
  _atom_site_occupancy
  Bi  Bi1       1.0  0.00000  0.00000  0.00000  1.0000
  Hg  Hg1       1.0  0.24531  0.24531  0.24531  1.0000
  Hg  Hg2       1.0  0.50000  0.50000  0.50000  1.0000
  Hg  Hg3       1.0  0.75469  0.75469  0.75469  1.0000
