data_image0
_chemical_formula_structural       F4Bi4
_chemical_formula_sum              "F4 Bi4"
_cell_length_a       5.53312
_cell_length_b       5.53312
_cell_length_c       5.53312
_cell_angle_alpha    90
_cell_angle_beta     90
_cell_angle_gamma    90

_space_group_name_H-M_alt    "P 1"
_space_group_IT_number       1

loop_
  _space_group_symop_operation_xyz
  'x, y, z'

loop_
  _atom_site_type_symbol
  _atom_site_label
  _atom_site_symmetry_multiplicity
  _atom_site_fract_x
  _atom_site_fract_y
  _atom_site_fract_z
  _atom_site_occupancy
  F   F1        1.0  0.90932  0.90932  0.90932  1.0000
  F   F2        1.0  0.59068  0.09068  0.40932  1.0000
  F   F3        1.0  0.40932  0.59068  0.09068  1.0000
  F   F4        1.0  0.09068  0.40932  0.59068  1.0000
  Bi  Bi1       1.0  0.15833  0.15833  0.15833  1.0000
  Bi  Bi2       1.0  0.34167  0.84167  0.65833  1.0000
  Bi  Bi3       1.0  0.65833  0.34167  0.84167  1.0000
  Bi  Bi4       1.0  0.84167  0.65833  0.34167  1.0000
