data_image0
_chemical_formula_structural       Bi6Hg20
_chemical_formula_sum              "Bi6 Hg20"
_cell_length_a       12.049
_cell_length_b       12.049
_cell_length_c       5.83296
_cell_angle_alpha    90
_cell_angle_beta     90
_cell_angle_gamma    120

_space_group_name_H-M_alt    "P 1"
_space_group_IT_number       1

loop_
  _space_group_symop_operation_xyz
  'x, y, z'

loop_
  _atom_site_type_symbol
  _atom_site_label
  _atom_site_symmetry_multiplicity
  _atom_site_fract_x
  _atom_site_fract_y
  _atom_site_fract_z
  _atom_site_occupancy
  Bi  Bi1       1.0  0.60815  0.68400  0.25000  1.0000
  Bi  Bi2       1.0  0.31600  0.92415  0.25000  1.0000
  Bi  Bi3       1.0  0.07585  0.39185  0.25000  1.0000
  Bi  Bi4       1.0  0.39185  0.31600  0.75000  1.0000
  Bi  Bi5       1.0  0.68400  0.07585  0.75000  1.0000
  Bi  Bi6       1.0  0.92415  0.60815  0.75000  1.0000
  Hg  Hg1       1.0  0.89264  0.06934  0.25000  1.0000
  Hg  Hg2       1.0  0.93066  0.82330  0.25000  1.0000
  Hg  Hg3       1.0  0.17670  0.10736  0.25000  1.0000
  Hg  Hg4       1.0  0.10736  0.93066  0.75000  1.0000
  Hg  Hg5       1.0  0.06934  0.17670  0.75000  1.0000
  Hg  Hg6       1.0  0.82330  0.89264  0.75000  1.0000
  Hg  Hg7       1.0  0.58982  0.95132  0.25000  1.0000
  Hg  Hg8       1.0  0.04868  0.63851  0.25000  1.0000
  Hg  Hg9       1.0  0.36149  0.41018  0.25000  1.0000
  Hg  Hg10      1.0  0.41018  0.04868  0.75000  1.0000
  Hg  Hg11      1.0  0.95132  0.36149  0.75000  1.0000
  Hg  Hg12      1.0  0.63851  0.58982  0.75000  1.0000
  Hg  Hg13      1.0  0.76779  0.25813  0.25000  1.0000
  Hg  Hg14      1.0  0.74187  0.50966  0.25000  1.0000
  Hg  Hg15      1.0  0.49034  0.23221  0.25000  1.0000
  Hg  Hg16      1.0  0.23221  0.74187  0.75000  1.0000
  Hg  Hg17      1.0  0.25813  0.49034  0.75000  1.0000
  Hg  Hg18      1.0  0.50966  0.76779  0.75000  1.0000
  Hg  Hg19      1.0  0.66667  0.33333  0.75000  1.0000
  Hg  Hg20      1.0  0.33333  0.66667  0.25000  1.0000
