data_image0
_chemical_formula_structural       Bi4Hg6
_chemical_formula_sum              "Bi4 Hg6"
_cell_length_a       7.92188
_cell_length_b       7.92188
_cell_length_c       7.92188
_cell_angle_alpha    136.148
_cell_angle_beta     112.667
_cell_angle_gamma    83.8863

_space_group_name_H-M_alt    "P 1"
_space_group_IT_number       1

loop_
  _space_group_symop_operation_xyz
  'x, y, z'

loop_
  _atom_site_type_symbol
  _atom_site_label
  _atom_site_symmetry_multiplicity
  _atom_site_fract_x
  _atom_site_fract_y
  _atom_site_fract_z
  _atom_site_occupancy
  Bi  Bi1       1.0  0.59596  0.34541  0.25055  1.0000
  Bi  Bi2       1.0  0.40404  0.65459  0.74945  1.0000
  Bi  Bi3       1.0  0.90515  0.15459  0.75055  1.0000
  Bi  Bi4       1.0  0.09485  0.84541  0.24945  1.0000
  Hg  Hg1       1.0  0.51154  0.89749  0.61405  1.0000
  Hg  Hg2       1.0  0.48846  0.10251  0.38595  1.0000
  Hg  Hg3       1.0  0.28345  0.39749  0.88595  1.0000
  Hg  Hg4       1.0  0.71655  0.60251  0.11405  1.0000
  Hg  Hg5       1.0  0.00000  0.75000  0.75000  1.0000
  Hg  Hg6       1.0  0.00000  0.25000  0.25000  1.0000
