data_image0
_chemical_formula_structural       Bi6Hg4
_chemical_formula_sum              "Bi6 Hg4"
_cell_length_a       6.51602
_cell_length_b       6.51602
_cell_length_c       8.06211
_cell_angle_alpha    90
_cell_angle_beta     90
_cell_angle_gamma    90

_space_group_name_H-M_alt    "P 1"
_space_group_IT_number       1

loop_
  _space_group_symop_operation_xyz
  'x, y, z'

loop_
  _atom_site_type_symbol
  _atom_site_label
  _atom_site_symmetry_multiplicity
  _atom_site_fract_x
  _atom_site_fract_y
  _atom_site_fract_z
  _atom_site_occupancy
  Bi  Bi1       1.0  0.00000  0.00000  0.00000  1.0000
  Bi  Bi2       1.0  0.50000  0.50000  0.00000  1.0000
  Bi  Bi3       1.0  0.16929  0.66929  0.74629  1.0000
  Bi  Bi4       1.0  0.33071  0.16929  0.25371  1.0000
  Bi  Bi5       1.0  0.66929  0.83071  0.25371  1.0000
  Bi  Bi6       1.0  0.83071  0.33071  0.74629  1.0000
  Hg  Hg1       1.0  0.17392  0.67392  0.34524  1.0000
  Hg  Hg2       1.0  0.32608  0.17392  0.65476  1.0000
  Hg  Hg3       1.0  0.67392  0.82608  0.65476  1.0000
  Hg  Hg4       1.0  0.82608  0.32608  0.34524  1.0000
