data_image0
_chemical_formula_structural       Bi4F12
_chemical_formula_sum              "Bi4 F12"
_cell_length_a       5.06977
_cell_length_b       6.54234
_cell_length_c       7.11429
_cell_angle_alpha    90
_cell_angle_beta     90
_cell_angle_gamma    90

_space_group_name_H-M_alt    "P 1"
_space_group_IT_number       1

loop_
  _space_group_symop_operation_xyz
  'x, y, z'

loop_
  _atom_site_type_symbol
  _atom_site_label
  _atom_site_symmetry_multiplicity
  _atom_site_fract_x
  _atom_site_fract_y
  _atom_site_fract_z
  _atom_site_occupancy
  Bi  Bi1       1.0  0.52789  0.13688  0.75000  1.0000
  Bi  Bi2       1.0  0.02789  0.36312  0.25000  1.0000
  Bi  Bi3       1.0  0.97211  0.63688  0.75000  1.0000
  Bi  Bi4       1.0  0.47211  0.86312  0.25000  1.0000
  F   F1        1.0  0.64937  0.84010  0.93988  1.0000
  F   F2        1.0  0.14937  0.65990  0.06012  1.0000
  F   F3        1.0  0.85063  0.34010  0.56012  1.0000
  F   F4        1.0  0.35063  0.15990  0.43988  1.0000
  F   F5        1.0  0.85851  0.04013  0.25000  1.0000
  F   F6        1.0  0.35851  0.45987  0.75000  1.0000
  F   F7        1.0  0.64149  0.54013  0.25000  1.0000
  F   F8        1.0  0.14149  0.95987  0.75000  1.0000
  F   F9        1.0  0.64937  0.84010  0.56012  1.0000
  F   F10       1.0  0.14937  0.65990  0.43988  1.0000
  F   F11       1.0  0.85063  0.34010  0.93988  1.0000
  F   F12       1.0  0.35063  0.15990  0.06012  1.0000
