data_image0
_chemical_formula_structural       Bi4F8
_chemical_formula_sum              "Bi4 F8"
_cell_length_a       8.90059
_cell_length_b       8.90059
_cell_length_c       9.50894
_cell_angle_alpha    47.0714
_cell_angle_beta     47.0714
_cell_angle_gamma    23.6822

_space_group_name_H-M_alt    "P 1"
_space_group_IT_number       1

loop_
  _space_group_symop_operation_xyz
  'x, y, z'

loop_
  _atom_site_type_symbol
  _atom_site_label
  _atom_site_symmetry_multiplicity
  _atom_site_fract_x
  _atom_site_fract_y
  _atom_site_fract_z
  _atom_site_occupancy
  Bi  Bi1       1.0  0.69787  0.69787  0.95632  1.0000
  Bi  Bi2       1.0  0.30213  0.30213  0.04368  1.0000
  Bi  Bi3       1.0  0.39401  0.39401  0.36956  1.0000
  Bi  Bi4       1.0  0.60599  0.60599  0.63044  1.0000
  F   F1        1.0  0.99932  0.99932  0.15382  1.0000
  F   F2        1.0  0.00068  0.00068  0.84618  1.0000
  F   F3        1.0  0.85824  0.85824  0.56935  1.0000
  F   F4        1.0  0.14176  0.14176  0.43065  1.0000
  F   F5        1.0  0.55386  0.55386  0.28656  1.0000
  F   F6        1.0  0.44614  0.44614  0.71344  1.0000
  F   F7        1.0  0.20415  0.20415  0.64899  1.0000
  F   F8        1.0  0.79585  0.79585  0.35101  1.0000
