data_image0
_chemical_formula_structural       Bi6Hg10
_chemical_formula_sum              "Bi6 Hg10"
_cell_length_a       4.12218
_cell_length_b       6.84214
_cell_length_c       16.186
_cell_angle_alpha    90
_cell_angle_beta     90
_cell_angle_gamma    90

_space_group_name_H-M_alt    "P 1"
_space_group_IT_number       1

loop_
  _space_group_symop_operation_xyz
  'x, y, z'

loop_
  _atom_site_type_symbol
  _atom_site_label
  _atom_site_symmetry_multiplicity
  _atom_site_fract_x
  _atom_site_fract_y
  _atom_site_fract_z
  _atom_site_occupancy
  Bi  Bi1       1.0  0.50000  0.27328  0.88063  1.0000
  Bi  Bi2       1.0  0.50000  0.77328  0.61937  1.0000
  Bi  Bi3       1.0  0.00000  0.50000  0.50000  1.0000
  Bi  Bi4       1.0  0.00000  0.00000  0.00000  1.0000
  Bi  Bi5       1.0  0.50000  0.72672  0.11937  1.0000
  Bi  Bi6       1.0  0.50000  0.22672  0.38063  1.0000
  Hg  Hg1       1.0  0.50000  0.73269  0.36693  1.0000
  Hg  Hg2       1.0  0.50000  0.26731  0.63307  1.0000
  Hg  Hg3       1.0  0.00000  0.02896  0.75011  1.0000
  Hg  Hg4       1.0  0.50000  0.76731  0.86693  1.0000
  Hg  Hg5       1.0  0.00000  0.47104  0.25011  1.0000
  Hg  Hg6       1.0  0.00000  0.97104  0.24989  1.0000
  Hg  Hg7       1.0  0.00000  0.52896  0.74989  1.0000
  Hg  Hg8       1.0  0.00000  0.50000  0.00000  1.0000
  Hg  Hg9       1.0  0.00000  0.00000  0.50000  1.0000
  Hg  Hg10      1.0  0.50000  0.23269  0.13307  1.0000
