data_image0
_chemical_formula_structural       Bi4Hg8
_chemical_formula_sum              "Bi4 Hg8"
_cell_length_a       11.2412
_cell_length_b       11.2412
_cell_length_c       8.36586
_cell_angle_alpha    90
_cell_angle_beta     90
_cell_angle_gamma    161.142

_space_group_name_H-M_alt    "P 1"
_space_group_IT_number       1

loop_
  _space_group_symop_operation_xyz
  'x, y, z'

loop_
  _atom_site_type_symbol
  _atom_site_label
  _atom_site_symmetry_multiplicity
  _atom_site_fract_x
  _atom_site_fract_y
  _atom_site_fract_z
  _atom_site_occupancy
  Bi  Bi1       1.0  0.19146  0.80854  0.23749  1.0000
  Bi  Bi2       1.0  0.80854  0.19146  0.73749  1.0000
  Bi  Bi3       1.0  0.56018  0.43982  0.69766  1.0000
  Bi  Bi4       1.0  0.43982  0.56018  0.19766  1.0000
  Hg  Hg1       1.0  0.67851  0.32149  0.92604  1.0000
  Hg  Hg2       1.0  0.32149  0.67851  0.42604  1.0000
  Hg  Hg3       1.0  0.42122  0.57878  0.82535  1.0000
  Hg  Hg4       1.0  0.57878  0.42122  0.32535  1.0000
  Hg  Hg5       1.0  0.18414  0.81586  0.61281  1.0000
  Hg  Hg6       1.0  0.81586  0.18414  0.11281  1.0000
  Hg  Hg7       1.0  0.95409  0.04591  0.51495  1.0000
  Hg  Hg8       1.0  0.04591  0.95409  0.01495  1.0000
