data_image0
_chemical_formula_structural       Bi4Hg12
_chemical_formula_sum              "Bi4 Hg12"
_cell_length_a       11.4098
_cell_length_b       11.4098
_cell_length_c       6.22128
_cell_angle_alpha    90
_cell_angle_beta     90
_cell_angle_gamma    145.688

_space_group_name_H-M_alt    "P 1"
_space_group_IT_number       1

loop_
  _space_group_symop_operation_xyz
  'x, y, z'

loop_
  _atom_site_type_symbol
  _atom_site_label
  _atom_site_symmetry_multiplicity
  _atom_site_fract_x
  _atom_site_fract_y
  _atom_site_fract_z
  _atom_site_occupancy
  Bi  Bi1       1.0  0.64915  0.35085  0.00000  1.0000
  Bi  Bi2       1.0  0.35085  0.64915  0.00000  1.0000
  Bi  Bi3       1.0  0.14915  0.85085  0.50000  1.0000
  Bi  Bi4       1.0  0.85085  0.14915  0.50000  1.0000
  Hg  Hg1       1.0  0.68143  0.68143  0.18351  1.0000
  Hg  Hg2       1.0  0.18143  0.18143  0.31649  1.0000
  Hg  Hg3       1.0  0.81857  0.81857  0.68351  1.0000
  Hg  Hg4       1.0  0.38896  0.61104  0.50000  1.0000
  Hg  Hg5       1.0  0.99269  0.49269  0.75000  1.0000
  Hg  Hg6       1.0  0.88896  0.11104  0.00000  1.0000
  Hg  Hg7       1.0  0.00731  0.50731  0.25000  1.0000
  Hg  Hg8       1.0  0.31857  0.31857  0.81649  1.0000
  Hg  Hg9       1.0  0.61104  0.38896  0.50000  1.0000
  Hg  Hg10      1.0  0.11104  0.88896  0.00000  1.0000
  Hg  Hg11      1.0  0.50731  0.00731  0.25000  1.0000
  Hg  Hg12      1.0  0.49269  0.99269  0.75000  1.0000
