data_image0
_chemical_formula_structural       Bi4F8
_chemical_formula_sum              "Bi4 F8"
_cell_length_a       4.15418
_cell_length_b       6.63441
_cell_length_c       7.3686
_cell_angle_alpha    90
_cell_angle_beta     90
_cell_angle_gamma    90

_space_group_name_H-M_alt    "P 1"
_space_group_IT_number       1

loop_
  _space_group_symop_operation_xyz
  'x, y, z'

loop_
  _atom_site_type_symbol
  _atom_site_label
  _atom_site_symmetry_multiplicity
  _atom_site_fract_x
  _atom_site_fract_y
  _atom_site_fract_z
  _atom_site_occupancy
  Bi  Bi1       1.0  0.75000  0.77760  0.76627  1.0000
  Bi  Bi2       1.0  0.75000  0.27760  0.73373  1.0000
  Bi  Bi3       1.0  0.25000  0.22240  0.23373  1.0000
  Bi  Bi4       1.0  0.25000  0.72240  0.26627  1.0000
  F   F1        1.0  0.75000  0.68335  0.09811  1.0000
  F   F2        1.0  0.75000  0.18335  0.40189  1.0000
  F   F3        1.0  0.25000  0.31665  0.90189  1.0000
  F   F4        1.0  0.25000  0.81665  0.59811  1.0000
  F   F5        1.0  0.75000  0.18683  0.05944  1.0000
  F   F6        1.0  0.75000  0.68683  0.44056  1.0000
  F   F7        1.0  0.25000  0.81317  0.94056  1.0000
  F   F8        1.0  0.25000  0.31317  0.55944  1.0000
