data_image0
_chemical_formula_structural       Hg10Bi6
_chemical_formula_sum              "Hg10 Bi6"
_cell_length_a       9.43452
_cell_length_b       9.43452
_cell_length_c       9.43452
_cell_angle_alpha    130.67
_cell_angle_beta     130.67
_cell_angle_gamma    72.3384

_space_group_name_H-M_alt    "P 1"
_space_group_IT_number       1

loop_
  _space_group_symop_operation_xyz
  'x, y, z'

loop_
  _atom_site_type_symbol
  _atom_site_label
  _atom_site_symmetry_multiplicity
  _atom_site_fract_x
  _atom_site_fract_y
  _atom_site_fract_z
  _atom_site_occupancy
  Hg  Hg1       1.0  0.49234  0.67940  0.50000  1.0000
  Hg  Hg2       1.0  0.50766  0.32060  0.50000  1.0000
  Hg  Hg3       1.0  0.50000  0.50000  0.00000  1.0000
  Hg  Hg4       1.0  0.00000  0.00000  0.00000  1.0000
  Hg  Hg5       1.0  0.17940  0.99234  0.50000  1.0000
  Hg  Hg6       1.0  0.99234  0.49234  0.81294  1.0000
  Hg  Hg7       1.0  0.67940  0.17940  0.18706  1.0000
  Hg  Hg8       1.0  0.32060  0.82060  0.81294  1.0000
  Hg  Hg9       1.0  0.00766  0.50766  0.18706  1.0000
  Hg  Hg10      1.0  0.82060  0.00766  0.50000  1.0000
  Bi  Bi1       1.0  0.85885  0.64115  0.50000  1.0000
  Bi  Bi2       1.0  0.64115  0.14115  0.78229  1.0000
  Bi  Bi3       1.0  0.35885  0.85885  0.21771  1.0000
  Bi  Bi4       1.0  0.14115  0.35885  0.50000  1.0000
  Bi  Bi5       1.0  0.25000  0.25000  0.00000  1.0000
  Bi  Bi6       1.0  0.75000  0.75000  0.00000  1.0000
