data_image0
_chemical_formula_structural       Bi3Hg4
_chemical_formula_sum              "Bi3 Hg4"
_cell_length_a       7.32089
_cell_length_b       7.32089
_cell_length_c       8.11924
_cell_angle_alpha    59.795
_cell_angle_beta     59.795
_cell_angle_gamma    38.3026

_space_group_name_H-M_alt    "P 1"
_space_group_IT_number       1

loop_
  _space_group_symop_operation_xyz
  'x, y, z'

loop_
  _atom_site_type_symbol
  _atom_site_label
  _atom_site_symmetry_multiplicity
  _atom_site_fract_x
  _atom_site_fract_y
  _atom_site_fract_z
  _atom_site_occupancy
  Bi  Bi1       1.0  0.00000  0.00000  0.00000  1.0000
  Bi  Bi2       1.0  0.28530  0.28530  0.69922  1.0000
  Bi  Bi3       1.0  0.71470  0.71470  0.30078  1.0000
  Hg  Hg1       1.0  0.08824  0.08824  0.56011  1.0000
  Hg  Hg2       1.0  0.91176  0.91176  0.43989  1.0000
  Hg  Hg3       1.0  0.64379  0.64379  0.01350  1.0000
  Hg  Hg4       1.0  0.35621  0.35621  0.98650  1.0000
