data_image0
_chemical_formula_structural       Bi6F16
_chemical_formula_sum              "Bi6 F16"
_cell_length_a       5.74025
_cell_length_b       6.48542
_cell_length_c       13.2979
_cell_angle_alpha    70.6183
_cell_angle_beta     90
_cell_angle_gamma    90

_space_group_name_H-M_alt    "P 1"
_space_group_IT_number       1

loop_
  _space_group_symop_operation_xyz
  'x, y, z'

loop_
  _atom_site_type_symbol
  _atom_site_label
  _atom_site_symmetry_multiplicity
  _atom_site_fract_x
  _atom_site_fract_y
  _atom_site_fract_z
  _atom_site_occupancy
  Bi  Bi1       1.0  0.49840  0.74527  0.75511  1.0000
  Bi  Bi2       1.0  0.50160  0.25473  0.24489  1.0000
  Bi  Bi3       1.0  0.50000  0.00000  0.00000  1.0000
  Bi  Bi4       1.0  0.99840  0.25473  0.74489  1.0000
  Bi  Bi5       1.0  0.00160  0.74527  0.25511  1.0000
  Bi  Bi6       1.0  0.00000  0.00000  0.50000  1.0000
  F   F1        1.0  0.69308  0.56985  0.19089  1.0000
  F   F2        1.0  0.67917  0.09455  0.71076  1.0000
  F   F3        1.0  0.58694  0.73685  0.92310  1.0000
  F   F4        1.0  0.69030  0.19551  0.40165  1.0000
  F   F5        1.0  0.80970  0.19551  0.90165  1.0000
  F   F6        1.0  0.82083  0.09455  0.21076  1.0000
  F   F7        1.0  0.91306  0.73685  0.42310  1.0000
  F   F8        1.0  0.80692  0.56985  0.69089  1.0000
  F   F9        1.0  0.17917  0.90545  0.78924  1.0000
  F   F10       1.0  0.19030  0.80449  0.09835  1.0000
  F   F11       1.0  0.08694  0.26315  0.57690  1.0000
  F   F12       1.0  0.19308  0.43015  0.30911  1.0000
  F   F13       1.0  0.41306  0.26315  0.07690  1.0000
  F   F14       1.0  0.30692  0.43015  0.80911  1.0000
  F   F15       1.0  0.32083  0.90545  0.28924  1.0000
  F   F16       1.0  0.30970  0.80449  0.59835  1.0000
