data_image0
_chemical_formula_structural       F2Bi6
_chemical_formula_sum              "F2 Bi6"
_cell_length_a       9.68444
_cell_length_b       9.68444
_cell_length_c       9.68444
_cell_angle_alpha    150.483
_cell_angle_beta     150.483
_cell_angle_gamma    42.2328

_space_group_name_H-M_alt    "P 1"
_space_group_IT_number       1

loop_
  _space_group_symop_operation_xyz
  'x, y, z'

loop_
  _atom_site_type_symbol
  _atom_site_label
  _atom_site_symmetry_multiplicity
  _atom_site_fract_x
  _atom_site_fract_y
  _atom_site_fract_z
  _atom_site_occupancy
  F   F1        1.0  0.81562  0.81562  0.00000  1.0000
  F   F2        1.0  0.18438  0.18438  0.00000  1.0000
  Bi  Bi1       1.0  0.00000  0.50000  0.50000  1.0000
  Bi  Bi2       1.0  0.50000  0.00000  0.50000  1.0000
  Bi  Bi3       1.0  0.75000  0.25000  0.50000  1.0000
  Bi  Bi4       1.0  0.25000  0.75000  0.50000  1.0000
  Bi  Bi5       1.0  0.62853  0.62853  0.00000  1.0000
  Bi  Bi6       1.0  0.37147  0.37147  0.00000  1.0000
