data_image0
_chemical_formula_structural       Hg6Bi2
_chemical_formula_sum              "Hg6 Bi2"
_cell_length_a       5.93293
_cell_length_b       5.93574
_cell_length_c       6.33498
_cell_angle_alpha    90
_cell_angle_beta     90
_cell_angle_gamma    90

_space_group_name_H-M_alt    "P 1"
_space_group_IT_number       1

loop_
  _space_group_symop_operation_xyz
  'x, y, z'

loop_
  _atom_site_type_symbol
  _atom_site_label
  _atom_site_symmetry_multiplicity
  _atom_site_fract_x
  _atom_site_fract_y
  _atom_site_fract_z
  _atom_site_occupancy
  Hg  Hg1       1.0  0.00000  0.26007  0.25002  1.0000
  Hg  Hg2       1.0  0.00000  0.26007  0.74998  1.0000
  Hg  Hg3       1.0  0.50000  0.73993  0.24998  1.0000
  Hg  Hg4       1.0  0.50000  0.73993  0.75002  1.0000
  Hg  Hg5       1.0  0.00000  0.76823  0.50000  1.0000
  Hg  Hg6       1.0  0.50000  0.23177  0.00000  1.0000
  Bi  Bi1       1.0  0.00000  0.75397  0.00000  1.0000
  Bi  Bi2       1.0  0.50000  0.24603  0.50000  1.0000
