data_image0
_chemical_formula_structural       BiHg4
_chemical_formula_sum              "Bi1 Hg4"
_cell_length_a       5.87474
_cell_length_b       5.87474
_cell_length_c       5.87474
_cell_angle_alpha    99.0887
_cell_angle_beta     99.0887
_cell_angle_gamma    133.163

_space_group_name_H-M_alt    "P 1"
_space_group_IT_number       1

loop_
  _space_group_symop_operation_xyz
  'x, y, z'

loop_
  _atom_site_type_symbol
  _atom_site_label
  _atom_site_symmetry_multiplicity
  _atom_site_fract_x
  _atom_site_fract_y
  _atom_site_fract_z
  _atom_site_occupancy
  Bi  Bi1       1.0  0.00000  0.00000  0.00000  1.0000
  Hg  Hg1       1.0  0.59969  0.19502  0.79470  1.0000
  Hg  Hg2       1.0  0.40031  0.80498  0.20530  1.0000
  Hg  Hg3       1.0  0.80498  0.59969  0.40467  1.0000
  Hg  Hg4       1.0  0.19502  0.40031  0.59533  1.0000
