data_image0
_chemical_formula_structural       Bi2Hg4
_chemical_formula_sum              "Bi2 Hg4"
_cell_length_a       6.35878
_cell_length_b       6.35878
_cell_length_c       4.6378
_cell_angle_alpha    90
_cell_angle_beta     90
_cell_angle_gamma    95.589

_space_group_name_H-M_alt    "P 1"
_space_group_IT_number       1

loop_
  _space_group_symop_operation_xyz
  'x, y, z'

loop_
  _atom_site_type_symbol
  _atom_site_label
  _atom_site_symmetry_multiplicity
  _atom_site_fract_x
  _atom_site_fract_y
  _atom_site_fract_z
  _atom_site_occupancy
  Bi  Bi1       1.0  0.12258  0.12258  0.75000  1.0000
  Bi  Bi2       1.0  0.87742  0.87742  0.25000  1.0000
  Hg  Hg1       1.0  0.46172  0.79013  0.75000  1.0000
  Hg  Hg2       1.0  0.79013  0.46172  0.75000  1.0000
  Hg  Hg3       1.0  0.20987  0.53828  0.25000  1.0000
  Hg  Hg4       1.0  0.53828  0.20987  0.25000  1.0000
