data_image0
_chemical_formula_structural       Bi2Hg3
_chemical_formula_sum              "Bi2 Hg3"
_cell_length_a       8.01602
_cell_length_b       8.01602
_cell_length_c       8.01602
_cell_angle_alpha    34.5496
_cell_angle_beta     34.5496
_cell_angle_gamma    34.5496

_space_group_name_H-M_alt    "P 1"
_space_group_IT_number       1

loop_
  _space_group_symop_operation_xyz
  'x, y, z'

loop_
  _atom_site_type_symbol
  _atom_site_label
  _atom_site_symmetry_multiplicity
  _atom_site_fract_x
  _atom_site_fract_y
  _atom_site_fract_z
  _atom_site_occupancy
  Bi  Bi1       1.0  0.60287  0.60287  0.60287  1.0000
  Bi  Bi2       1.0  0.39713  0.39713  0.39713  1.0000
  Hg  Hg1       1.0  0.00000  0.00000  0.00000  1.0000
  Hg  Hg2       1.0  0.19754  0.19754  0.19754  1.0000
  Hg  Hg3       1.0  0.80246  0.80246  0.80246  1.0000
