data_image0
_chemical_formula_structural       Bi3S4
_chemical_formula_sum              "Bi3 S4"
_cell_length_a       7.75491
_cell_length_b       7.75491
_cell_length_c       7.20492
_cell_angle_alpha    67.0074
_cell_angle_beta     67.0074
_cell_angle_gamma    30.5525

_space_group_name_H-M_alt    "P 1"
_space_group_IT_number       1

loop_
  _space_group_symop_operation_xyz
  'x, y, z'

loop_
  _atom_site_type_symbol
  _atom_site_label
  _atom_site_symmetry_multiplicity
  _atom_site_fract_x
  _atom_site_fract_y
  _atom_site_fract_z
  _atom_site_occupancy
  Bi  Bi1       1.0  0.00000  0.00000  0.00000  1.0000
  Bi  Bi2       1.0  0.27163  0.27163  0.71630  1.0000
  Bi  Bi3       1.0  0.72837  0.72837  0.28370  1.0000
  S   S1        1.0  0.13099  0.13099  0.54916  1.0000
  S   S2        1.0  0.86901  0.86901  0.45084  1.0000
  S   S3        1.0  0.63066  0.63066  0.00558  1.0000
  S   S4        1.0  0.36934  0.36934  0.99442  1.0000
