data_image0
_chemical_formula_structural       Bi2Hg2
_chemical_formula_sum              "Bi2 Hg2"
_cell_length_a       6.65728
_cell_length_b       6.65728
_cell_length_c       4.27144
_cell_angle_alpha    90
_cell_angle_beta     90
_cell_angle_gamma    138.523

_space_group_name_H-M_alt    "P 1"
_space_group_IT_number       1

loop_
  _space_group_symop_operation_xyz
  'x, y, z'

loop_
  _atom_site_type_symbol
  _atom_site_label
  _atom_site_symmetry_multiplicity
  _atom_site_fract_x
  _atom_site_fract_y
  _atom_site_fract_z
  _atom_site_occupancy
  Bi  Bi1       1.0  0.09634  0.90366  0.75000  1.0000
  Bi  Bi2       1.0  0.90366  0.09634  0.25000  1.0000
  Hg  Hg1       1.0  0.35996  0.64004  0.75000  1.0000
  Hg  Hg2       1.0  0.64004  0.35996  0.25000  1.0000
