data_image0
_chemical_formula_structural       Bi8S16
_chemical_formula_sum              "Bi8 S16"
_cell_length_a       4.1059
_cell_length_b       6.73203
_cell_length_c       24.566
_cell_angle_alpha    90
_cell_angle_beta     90
_cell_angle_gamma    90

_space_group_name_H-M_alt    "P 1"
_space_group_IT_number       1

loop_
  _space_group_symop_operation_xyz
  'x, y, z'

loop_
  _atom_site_type_symbol
  _atom_site_label
  _atom_site_symmetry_multiplicity
  _atom_site_fract_x
  _atom_site_fract_y
  _atom_site_fract_z
  _atom_site_occupancy
  Bi  Bi1       1.0  0.25000  0.09217  0.56697  1.0000
  Bi  Bi2       1.0  0.25000  0.40783  0.06697  1.0000
  Bi  Bi3       1.0  0.75000  0.90783  0.43303  1.0000
  Bi  Bi4       1.0  0.75000  0.59217  0.93303  1.0000
  Bi  Bi5       1.0  0.25000  0.03222  0.81282  1.0000
  Bi  Bi6       1.0  0.25000  0.46778  0.31282  1.0000
  Bi  Bi7       1.0  0.75000  0.96778  0.18718  1.0000
  Bi  Bi8       1.0  0.75000  0.53222  0.68718  1.0000
  S   S1        1.0  0.25000  0.44935  0.84307  1.0000
  S   S2        1.0  0.25000  0.05065  0.34307  1.0000
  S   S3        1.0  0.75000  0.55065  0.15693  1.0000
  S   S4        1.0  0.75000  0.94935  0.65693  1.0000
  S   S5        1.0  0.75000  0.13199  0.72460  1.0000
  S   S6        1.0  0.75000  0.36801  0.22460  1.0000
  S   S7        1.0  0.25000  0.86801  0.27540  1.0000
  S   S8        1.0  0.25000  0.63199  0.77540  1.0000
  S   S9        1.0  0.75000  0.97079  0.88208  1.0000
  S   S10       1.0  0.75000  0.52921  0.38208  1.0000
  S   S11       1.0  0.25000  0.02921  0.11792  1.0000
  S   S12       1.0  0.25000  0.47079  0.61792  1.0000
  S   S13       1.0  0.75000  0.23511  0.50821  1.0000
  S   S14       1.0  0.75000  0.26489  0.00821  1.0000
  S   S15       1.0  0.25000  0.76489  0.49179  1.0000
  S   S16       1.0  0.25000  0.73511  0.99179  1.0000
