data_image0
_chemical_formula_structural       Bi8S12
_chemical_formula_sum              "Bi8 S12"
_cell_length_a       4.01577
_cell_length_b       11.1749
_cell_length_c       11.9126
_cell_angle_alpha    90
_cell_angle_beta     90
_cell_angle_gamma    90

_space_group_name_H-M_alt    "P 1"
_space_group_IT_number       1

loop_
  _space_group_symop_operation_xyz
  'x, y, z'

loop_
  _atom_site_type_symbol
  _atom_site_label
  _atom_site_symmetry_multiplicity
  _atom_site_fract_x
  _atom_site_fract_y
  _atom_site_fract_z
  _atom_site_occupancy
  Bi  Bi1       1.0  0.25000  0.96720  0.84656  1.0000
  Bi  Bi2       1.0  0.75000  0.03280  0.15344  1.0000
  Bi  Bi3       1.0  0.75000  0.46720  0.65344  1.0000
  Bi  Bi4       1.0  0.25000  0.53280  0.34656  1.0000
  Bi  Bi5       1.0  0.25000  0.17225  0.52154  1.0000
  Bi  Bi6       1.0  0.75000  0.82775  0.47846  1.0000
  Bi  Bi7       1.0  0.75000  0.67225  0.97846  1.0000
  Bi  Bi8       1.0  0.25000  0.32775  0.02154  1.0000
  S   S1        1.0  0.25000  0.30929  0.70907  1.0000
  S   S2        1.0  0.75000  0.69071  0.29093  1.0000
  S   S3        1.0  0.75000  0.80929  0.79093  1.0000
  S   S4        1.0  0.25000  0.19071  0.20907  1.0000
  S   S5        1.0  0.25000  0.94688  0.37721  1.0000
  S   S6        1.0  0.75000  0.05312  0.62279  1.0000
  S   S7        1.0  0.75000  0.44688  0.12279  1.0000
  S   S8        1.0  0.25000  0.55312  0.87721  1.0000
  S   S9        1.0  0.25000  0.86991  0.04642  1.0000
  S   S10       1.0  0.75000  0.13009  0.95358  1.0000
  S   S11       1.0  0.75000  0.36991  0.45358  1.0000
  S   S12       1.0  0.25000  0.63009  0.54642  1.0000
