data_image0
_chemical_formula_structural       S8Bi4
_chemical_formula_sum              "S8 Bi4"
_cell_length_a       4.96494
_cell_length_b       8.94443
_cell_length_c       8.02905
_cell_angle_alpha    63.5129
_cell_angle_beta     90
_cell_angle_gamma    90

_space_group_name_H-M_alt    "P 1"
_space_group_IT_number       1

loop_
  _space_group_symop_operation_xyz
  'x, y, z'

loop_
  _atom_site_type_symbol
  _atom_site_label
  _atom_site_symmetry_multiplicity
  _atom_site_fract_x
  _atom_site_fract_y
  _atom_site_fract_z
  _atom_site_occupancy
  S   S1        1.0  0.13645  0.01128  0.39650  1.0000
  S   S2        1.0  0.63645  0.98872  0.10350  1.0000
  S   S3        1.0  0.86355  0.98872  0.60350  1.0000
  S   S4        1.0  0.36355  0.01128  0.89650  1.0000
  S   S5        1.0  0.72649  0.40510  0.66399  1.0000
  S   S6        1.0  0.22649  0.59490  0.83601  1.0000
  S   S7        1.0  0.27351  0.59490  0.33601  1.0000
  S   S8        1.0  0.77351  0.40510  0.16399  1.0000
  Bi  Bi1       1.0  0.00360  0.26137  0.97055  1.0000
  Bi  Bi2       1.0  0.50360  0.73863  0.52945  1.0000
  Bi  Bi3       1.0  0.99640  0.73863  0.02945  1.0000
  Bi  Bi4       1.0  0.49640  0.26137  0.47055  1.0000
