data_image0
_chemical_formula_structural       Hg8Bi4
_chemical_formula_sum              "Hg8 Bi4"
_cell_length_a       10.1493
_cell_length_b       4.99271
_cell_length_c       8.12763
_cell_angle_alpha    66.3995
_cell_angle_beta     90
_cell_angle_gamma    90

_space_group_name_H-M_alt    "P 1"
_space_group_IT_number       1

loop_
  _space_group_symop_operation_xyz
  'x, y, z'

loop_
  _atom_site_type_symbol
  _atom_site_label
  _atom_site_symmetry_multiplicity
  _atom_site_fract_x
  _atom_site_fract_y
  _atom_site_fract_z
  _atom_site_occupancy
  Hg  Hg1       1.0  0.37850  0.31736  0.29186  1.0000
  Hg  Hg2       1.0  0.62150  0.31736  0.79186  1.0000
  Hg  Hg3       1.0  0.37392  0.72197  0.74827  1.0000
  Hg  Hg4       1.0  0.87090  0.31558  0.27279  1.0000
  Hg  Hg5       1.0  0.62608  0.72197  0.24827  1.0000
  Hg  Hg6       1.0  0.12910  0.31558  0.77279  1.0000
  Hg  Hg7       1.0  0.87636  0.70019  0.74295  1.0000
  Hg  Hg8       1.0  0.12364  0.70019  0.24295  1.0000
  Bi  Bi1       1.0  0.37247  0.01836  0.01960  1.0000
  Bi  Bi2       1.0  0.62753  0.01836  0.51960  1.0000
  Bi  Bi3       1.0  0.87727  0.00984  0.00782  1.0000
  Bi  Bi4       1.0  0.12273  0.00984  0.50782  1.0000
