data_image0
_chemical_formula_structural       Bi2S6
_chemical_formula_sum              "Bi2 S6"
_cell_length_a       4.12477
_cell_length_b       8.71796
_cell_length_c       6.87621
_cell_angle_alpha    90
_cell_angle_beta     90
_cell_angle_gamma    90

_space_group_name_H-M_alt    "P 1"
_space_group_IT_number       1

loop_
  _space_group_symop_operation_xyz
  'x, y, z'

loop_
  _atom_site_type_symbol
  _atom_site_label
  _atom_site_symmetry_multiplicity
  _atom_site_fract_x
  _atom_site_fract_y
  _atom_site_fract_z
  _atom_site_occupancy
  Bi  Bi1       1.0  0.50000  0.91185  0.50000  1.0000
  Bi  Bi2       1.0  0.00000  0.08815  0.00000  1.0000
  S   S1        1.0  0.50000  0.22324  0.77377  1.0000
  S   S2        1.0  0.50000  0.22324  0.22623  1.0000
  S   S3        1.0  0.00000  0.77676  0.72623  1.0000
  S   S4        1.0  0.00000  0.77676  0.27377  1.0000
  S   S5        1.0  0.00000  0.60927  0.50000  1.0000
  S   S6        1.0  0.50000  0.39073  0.00000  1.0000
