data_image0
_chemical_formula_structural       Bi2S4
_chemical_formula_sum              "Bi2 S4"
_cell_length_a       5.66625
_cell_length_b       5.66625
_cell_length_c       5.66625
_cell_angle_alpha    113.223
_cell_angle_beta     113.223
_cell_angle_gamma    102.204

_space_group_name_H-M_alt    "P 1"
_space_group_IT_number       1

loop_
  _space_group_symop_operation_xyz
  'x, y, z'

loop_
  _atom_site_type_symbol
  _atom_site_label
  _atom_site_symmetry_multiplicity
  _atom_site_fract_x
  _atom_site_fract_y
  _atom_site_fract_z
  _atom_site_occupancy
  Bi  Bi1       1.0  0.75000  0.75000  0.00000  1.0000
  Bi  Bi2       1.0  0.25000  0.25000  0.00000  1.0000
  S   S1        1.0  0.36106  0.13894  0.50000  1.0000
  S   S2        1.0  0.86106  0.36106  0.22213  1.0000
  S   S3        1.0  0.63894  0.86106  0.50000  1.0000
  S   S4        1.0  0.13894  0.63894  0.77787  1.0000
