data_image0
_chemical_formula_structural       BiSe4
_chemical_formula_sum              "Bi1 Se4"
_cell_length_a       6.74487
_cell_length_b       6.74487
_cell_length_c       6.74487
_cell_angle_alpha    94.0529
_cell_angle_beta     94.0529
_cell_angle_gamma    149.165

_space_group_name_H-M_alt    "P 1"
_space_group_IT_number       1

loop_
  _space_group_symop_operation_xyz
  'x, y, z'

loop_
  _atom_site_type_symbol
  _atom_site_label
  _atom_site_symmetry_multiplicity
  _atom_site_fract_x
  _atom_site_fract_y
  _atom_site_fract_z
  _atom_site_occupancy
  Bi  Bi1       1.0  0.00000  0.00000  0.00000  1.0000
  Se  Se1       1.0  0.64918  0.72688  0.37607  1.0000
  Se  Se2       1.0  0.35082  0.27312  0.62393  1.0000
  Se  Se3       1.0  0.27312  0.64918  0.92230  1.0000
  Se  Se4       1.0  0.72688  0.35082  0.07770  1.0000
