data_image0
_chemical_formula_structural       S8Bi4
_chemical_formula_sum              "S8 Bi4"
_cell_length_a       10.6844
_cell_length_b       4.48329
_cell_length_c       7.50567
_cell_angle_alpha    68.896
_cell_angle_beta     90
_cell_angle_gamma    90

_space_group_name_H-M_alt    "P 1"
_space_group_IT_number       1

loop_
  _space_group_symop_operation_xyz
  'x, y, z'

loop_
  _atom_site_type_symbol
  _atom_site_label
  _atom_site_symmetry_multiplicity
  _atom_site_fract_x
  _atom_site_fract_y
  _atom_site_fract_z
  _atom_site_occupancy
  S   S1        1.0  0.46519  0.58482  0.29194  1.0000
  S   S2        1.0  0.53481  0.58482  0.79194  1.0000
  S   S3        1.0  0.36164  0.80395  0.75376  1.0000
  S   S4        1.0  0.88894  0.19491  0.26121  1.0000
  S   S5        1.0  0.63836  0.80395  0.25376  1.0000
  S   S6        1.0  0.11106  0.19491  0.76121  1.0000
  S   S7        1.0  0.84826  0.61851  0.71533  1.0000
  S   S8        1.0  0.15174  0.61851  0.21533  1.0000
  Bi  Bi1       1.0  0.32854  0.03383  0.02955  1.0000
  Bi  Bi2       1.0  0.67146  0.03383  0.52955  1.0000
  Bi  Bi3       1.0  0.93958  0.84727  0.03151  1.0000
  Bi  Bi4       1.0  0.06042  0.84727  0.53151  1.0000
