data_image0
_chemical_formula_structural       Bi9S8
_chemical_formula_sum              "Bi9 S8"
_cell_length_a       9.21126
_cell_length_b       9.21126
_cell_length_c       9.21126
_cell_angle_alpha    60
_cell_angle_beta     60
_cell_angle_gamma    60

_space_group_name_H-M_alt    "P 1"
_space_group_IT_number       1

loop_
  _space_group_symop_operation_xyz
  'x, y, z'

loop_
  _atom_site_type_symbol
  _atom_site_label
  _atom_site_symmetry_multiplicity
  _atom_site_fract_x
  _atom_site_fract_y
  _atom_site_fract_z
  _atom_site_occupancy
  Bi  Bi1       1.0  0.50000  0.50000  0.50000  1.0000
  Bi  Bi2       1.0  0.87552  0.37345  0.87552  1.0000
  Bi  Bi3       1.0  0.12448  0.12448  0.62655  1.0000
  Bi  Bi4       1.0  0.62655  0.12448  0.12448  1.0000
  Bi  Bi5       1.0  0.12448  0.12448  0.12448  1.0000
  Bi  Bi6       1.0  0.37345  0.87552  0.87552  1.0000
  Bi  Bi7       1.0  0.87552  0.87552  0.87552  1.0000
  Bi  Bi8       1.0  0.87552  0.87552  0.37345  1.0000
  Bi  Bi9       1.0  0.12448  0.62655  0.12448  1.0000
  S   S1        1.0  0.75000  0.75000  0.75000  1.0000
  S   S2        1.0  0.25000  0.25000  0.25000  1.0000
  S   S3        1.0  0.28365  0.28365  0.71635  1.0000
  S   S4        1.0  0.28365  0.71635  0.71635  1.0000
  S   S5        1.0  0.71635  0.28365  0.28365  1.0000
  S   S6        1.0  0.28365  0.71635  0.28365  1.0000
  S   S7        1.0  0.71635  0.28365  0.71635  1.0000
  S   S8        1.0  0.71635  0.71635  0.28365  1.0000
