data_image0
_chemical_formula_structural       Bi4S8
_chemical_formula_sum              "Bi4 S8"
_cell_length_a       4.19414
_cell_length_b       7.27766
_cell_length_c       9.36792
_cell_angle_alpha    90
_cell_angle_beta     90
_cell_angle_gamma    90

_space_group_name_H-M_alt    "P 1"
_space_group_IT_number       1

loop_
  _space_group_symop_operation_xyz
  'x, y, z'

loop_
  _atom_site_type_symbol
  _atom_site_label
  _atom_site_symmetry_multiplicity
  _atom_site_fract_x
  _atom_site_fract_y
  _atom_site_fract_z
  _atom_site_occupancy
  Bi  Bi1       1.0  0.75000  0.77875  0.07871  1.0000
  Bi  Bi2       1.0  0.25000  0.22125  0.92129  1.0000
  Bi  Bi3       1.0  0.75000  0.27875  0.42129  1.0000
  Bi  Bi4       1.0  0.25000  0.72125  0.57871  1.0000
  S   S1        1.0  0.75000  0.47562  0.66241  1.0000
  S   S2        1.0  0.25000  0.52438  0.33759  1.0000
  S   S3        1.0  0.75000  0.97562  0.83759  1.0000
  S   S4        1.0  0.25000  0.02438  0.16241  1.0000
  S   S5        1.0  0.75000  0.35680  0.09259  1.0000
  S   S6        1.0  0.25000  0.64320  0.90741  1.0000
  S   S7        1.0  0.75000  0.85680  0.40741  1.0000
  S   S8        1.0  0.25000  0.14320  0.59259  1.0000
