data_image0
_chemical_formula_structural       Bi4S8
_chemical_formula_sum              "Bi4 S8"
_cell_length_a       8.61821
_cell_length_b       8.61821
_cell_length_c       9.1831
_cell_angle_alpha    90
_cell_angle_beta     90
_cell_angle_gamma    152.001

_space_group_name_H-M_alt    "P 1"
_space_group_IT_number       1

loop_
  _space_group_symop_operation_xyz
  'x, y, z'

loop_
  _atom_site_type_symbol
  _atom_site_label
  _atom_site_symmetry_multiplicity
  _atom_site_fract_x
  _atom_site_fract_y
  _atom_site_fract_z
  _atom_site_occupancy
  Bi  Bi1       1.0  0.53864  0.46136  0.89669  1.0000
  Bi  Bi2       1.0  0.46136  0.53864  0.39669  1.0000
  Bi  Bi3       1.0  0.17559  0.82441  0.31346  1.0000
  Bi  Bi4       1.0  0.82441  0.17559  0.81346  1.0000
  S   S1        1.0  0.94293  0.05707  0.00414  1.0000
  S   S2        1.0  0.05707  0.94293  0.50414  1.0000
  S   S3        1.0  0.15844  0.84156  0.81675  1.0000
  S   S4        1.0  0.84156  0.15844  0.31675  1.0000
  S   S5        1.0  0.24750  0.75250  0.97762  1.0000
  S   S6        1.0  0.75250  0.24750  0.47762  1.0000
  S   S7        1.0  0.59117  0.40883  0.17705  1.0000
  S   S8        1.0  0.40883  0.59117  0.67705  1.0000
