data_image0
_chemical_formula_structural       Bi4S8
_chemical_formula_sum              "Bi4 S8"
_cell_length_a       8.22916
_cell_length_b       8.22916
_cell_length_c       11.7906
_cell_angle_alpha    54.2837
_cell_angle_beta     54.2837
_cell_angle_gamma    28.7456

_space_group_name_H-M_alt    "P 1"
_space_group_IT_number       1

loop_
  _space_group_symop_operation_xyz
  'x, y, z'

loop_
  _atom_site_type_symbol
  _atom_site_label
  _atom_site_symmetry_multiplicity
  _atom_site_fract_x
  _atom_site_fract_y
  _atom_site_fract_z
  _atom_site_occupancy
  Bi  Bi1       1.0  0.69912  0.69912  0.90383  1.0000
  Bi  Bi2       1.0  0.30088  0.30088  0.09617  1.0000
  Bi  Bi3       1.0  0.39039  0.39039  0.39615  1.0000
  Bi  Bi4       1.0  0.60961  0.60961  0.60385  1.0000
  S   S1        1.0  0.03515  0.03515  0.05110  1.0000
  S   S2        1.0  0.96485  0.96485  0.94890  1.0000
  S   S3        1.0  0.92189  0.92189  0.53927  1.0000
  S   S4        1.0  0.07811  0.07811  0.46073  1.0000
  S   S5        1.0  0.65836  0.65836  0.15518  1.0000
  S   S6        1.0  0.34164  0.34164  0.84482  1.0000
  S   S7        1.0  0.21019  0.21019  0.65071  1.0000
  S   S8        1.0  0.78981  0.78981  0.34929  1.0000
