data_image0
_chemical_formula_structural       Hg8Bi4
_chemical_formula_sum              "Hg8 Bi4"
_cell_length_a       4.97655
_cell_length_b       9.81023
_cell_length_c       8.51076
_cell_angle_alpha    62.9164
_cell_angle_beta     90
_cell_angle_gamma    90

_space_group_name_H-M_alt    "P 1"
_space_group_IT_number       1

loop_
  _space_group_symop_operation_xyz
  'x, y, z'

loop_
  _atom_site_type_symbol
  _atom_site_label
  _atom_site_symmetry_multiplicity
  _atom_site_fract_x
  _atom_site_fract_y
  _atom_site_fract_z
  _atom_site_occupancy
  Hg  Hg1       1.0  0.23133  0.99488  0.39267  1.0000
  Hg  Hg2       1.0  0.73133  0.00512  0.10733  1.0000
  Hg  Hg3       1.0  0.76867  0.00512  0.60733  1.0000
  Hg  Hg4       1.0  0.26867  0.99488  0.89267  1.0000
  Hg  Hg5       1.0  0.79284  0.36155  0.69620  1.0000
  Hg  Hg6       1.0  0.29284  0.63845  0.80380  1.0000
  Hg  Hg7       1.0  0.20716  0.63845  0.30380  1.0000
  Hg  Hg8       1.0  0.70716  0.36155  0.19620  1.0000
  Bi  Bi1       1.0  0.13525  0.27769  0.01435  1.0000
  Bi  Bi2       1.0  0.63525  0.72231  0.48565  1.0000
  Bi  Bi3       1.0  0.86475  0.72231  0.98565  1.0000
  Bi  Bi4       1.0  0.36475  0.27769  0.51435  1.0000
