data_image0
_chemical_formula_structural       BiS4
_chemical_formula_sum              "Bi1 S4"
_cell_length_a       6.42598
_cell_length_b       6.42598
_cell_length_c       6.42598
_cell_angle_alpha    95.0126
_cell_angle_beta     95.0126
_cell_angle_gamma    145.614

_space_group_name_H-M_alt    "P 1"
_space_group_IT_number       1

loop_
  _space_group_symop_operation_xyz
  'x, y, z'

loop_
  _atom_site_type_symbol
  _atom_site_label
  _atom_site_symmetry_multiplicity
  _atom_site_fract_x
  _atom_site_fract_y
  _atom_site_fract_z
  _atom_site_occupancy
  Bi  Bi1       1.0  0.00000  0.00000  0.00000  1.0000
  S   S1        1.0  0.72743  0.19045  0.91788  1.0000
  S   S2        1.0  0.27257  0.80955  0.08212  1.0000
  S   S3        1.0  0.80955  0.72743  0.53699  1.0000
  S   S4        1.0  0.19045  0.27257  0.46301  1.0000
