data_image0
_chemical_formula_structural       Se6Bi2
_chemical_formula_sum              "Se6 Bi2"
_cell_length_a       4.15078
_cell_length_b       9.56001
_cell_length_c       5.99577
_cell_angle_alpha    90
_cell_angle_beta     90
_cell_angle_gamma    90

_space_group_name_H-M_alt    "P 1"
_space_group_IT_number       1

loop_
  _space_group_symop_operation_xyz
  'x, y, z'

loop_
  _atom_site_type_symbol
  _atom_site_label
  _atom_site_symmetry_multiplicity
  _atom_site_fract_x
  _atom_site_fract_y
  _atom_site_fract_z
  _atom_site_occupancy
  Se  Se1       1.0  0.00000  0.37364  0.30715  1.0000
  Se  Se2       1.0  0.00000  0.37364  0.69285  1.0000
  Se  Se3       1.0  0.50000  0.62636  0.19285  1.0000
  Se  Se4       1.0  0.50000  0.62636  0.80715  1.0000
  Se  Se5       1.0  0.00000  0.93727  0.50000  1.0000
  Se  Se6       1.0  0.50000  0.06273  0.00000  1.0000
  Bi  Bi1       1.0  0.00000  0.85685  0.00000  1.0000
  Bi  Bi2       1.0  0.50000  0.14315  0.50000  1.0000
