data_image0
_chemical_formula_structural       BiHg2
_chemical_formula_sum              "Bi1 Hg2"
_cell_length_a       3.51679
_cell_length_b       3.51679
_cell_length_c       7.13662
_cell_angle_alpha    95.6169
_cell_angle_beta     95.6169
_cell_angle_gamma    76.1873

_space_group_name_H-M_alt    "P 1"
_space_group_IT_number       1

loop_
  _space_group_symop_operation_xyz
  'x, y, z'

loop_
  _atom_site_type_symbol
  _atom_site_label
  _atom_site_symmetry_multiplicity
  _atom_site_fract_x
  _atom_site_fract_y
  _atom_site_fract_z
  _atom_site_occupancy
  Bi  Bi1       1.0  0.66107  0.33893  0.50000  1.0000
  Hg  Hg1       1.0  0.33309  0.99416  0.84512  1.0000
  Hg  Hg2       1.0  0.00584  0.66691  0.15488  1.0000
