data_image0
_chemical_formula_structural       Bi8Se8
_chemical_formula_sum              "Bi8 Se8"
_cell_length_a       8.01746
_cell_length_b       8.01746
_cell_length_c       8.24074
_cell_angle_alpha    90
_cell_angle_beta     90
_cell_angle_gamma    90

_space_group_name_H-M_alt    "P 1"
_space_group_IT_number       1

loop_
  _space_group_symop_operation_xyz
  'x, y, z'

loop_
  _atom_site_type_symbol
  _atom_site_label
  _atom_site_symmetry_multiplicity
  _atom_site_fract_x
  _atom_site_fract_y
  _atom_site_fract_z
  _atom_site_occupancy
  Bi  Bi1       1.0  0.54252  0.70047  0.00000  1.0000
  Bi  Bi2       1.0  0.29953  0.54252  0.50000  1.0000
  Bi  Bi3       1.0  0.70047  0.45748  0.50000  1.0000
  Bi  Bi4       1.0  0.45748  0.29953  0.00000  1.0000
  Bi  Bi5       1.0  0.50000  0.00000  0.50000  1.0000
  Bi  Bi6       1.0  0.00000  0.50000  0.00000  1.0000
  Bi  Bi7       1.0  0.00000  0.00000  0.75000  1.0000
  Bi  Bi8       1.0  0.00000  0.00000  0.25000  1.0000
  Se  Se1       1.0  0.19490  0.31038  0.75640  1.0000
  Se  Se2       1.0  0.68962  0.19490  0.25640  1.0000
  Se  Se3       1.0  0.31038  0.80510  0.25640  1.0000
  Se  Se4       1.0  0.80510  0.68962  0.75640  1.0000
  Se  Se5       1.0  0.80510  0.68962  0.24360  1.0000
  Se  Se6       1.0  0.31038  0.80510  0.74360  1.0000
  Se  Se7       1.0  0.68962  0.19490  0.74360  1.0000
  Se  Se8       1.0  0.19490  0.31038  0.24360  1.0000
