data_image0
_chemical_formula_structural       Se9Bi13
_chemical_formula_sum              "Se9 Bi13"
_cell_length_a       9.46286
_cell_length_b       9.46286
_cell_length_c       8.22462
_cell_angle_alpha    90
_cell_angle_beta     90
_cell_angle_gamma    120

_space_group_name_H-M_alt    "P 1"
_space_group_IT_number       1

loop_
  _space_group_symop_operation_xyz
  'x, y, z'

loop_
  _atom_site_type_symbol
  _atom_site_label
  _atom_site_symmetry_multiplicity
  _atom_site_fract_x
  _atom_site_fract_y
  _atom_site_fract_z
  _atom_site_occupancy
  Se  Se1       1.0  0.00000  0.00000  0.50000  1.0000
  Se  Se2       1.0  0.33333  0.66667  0.65165  1.0000
  Se  Se3       1.0  0.66667  0.33333  0.34835  1.0000
  Se  Se4       1.0  0.20773  0.79227  0.24071  1.0000
  Se  Se5       1.0  0.20773  0.41546  0.24071  1.0000
  Se  Se6       1.0  0.58454  0.79227  0.24071  1.0000
  Se  Se7       1.0  0.41546  0.20773  0.75929  1.0000
  Se  Se8       1.0  0.79227  0.58454  0.75929  1.0000
  Se  Se9       1.0  0.79227  0.20773  0.75929  1.0000
  Bi  Bi1       1.0  0.00000  0.00000  0.00000  1.0000
  Bi  Bi2       1.0  0.50000  0.00000  0.00000  1.0000
  Bi  Bi3       1.0  1.00000  0.50000  0.00000  1.0000
  Bi  Bi4       1.0  0.50000  0.50000  0.00000  1.0000
  Bi  Bi5       1.0  0.50000  0.00000  0.50000  1.0000
  Bi  Bi6       1.0  1.00000  0.50000  0.50000  1.0000
  Bi  Bi7       1.0  0.50000  0.50000  0.50000  1.0000
  Bi  Bi8       1.0  0.14759  0.85241  0.75400  1.0000
  Bi  Bi9       1.0  0.14759  0.29519  0.75400  1.0000
  Bi  Bi10      1.0  0.70481  0.85241  0.75400  1.0000
  Bi  Bi11      1.0  0.29519  0.14759  0.24600  1.0000
  Bi  Bi12      1.0  0.85241  0.70481  0.24600  1.0000
  Bi  Bi13      1.0  0.85241  0.14759  0.24600  1.0000
