data_image0
_chemical_formula_structural       Tl6Bi2
_chemical_formula_sum              "Tl6 Bi2"
_cell_length_a       5.7799
_cell_length_b       6.12387
_cell_length_c       7.3256
_cell_angle_alpha    90
_cell_angle_beta     90
_cell_angle_gamma    90

_space_group_name_H-M_alt    "P 1"
_space_group_IT_number       1

loop_
  _space_group_symop_operation_xyz
  'x, y, z'

loop_
  _atom_site_type_symbol
  _atom_site_label
  _atom_site_symmetry_multiplicity
  _atom_site_fract_x
  _atom_site_fract_y
  _atom_site_fract_z
  _atom_site_occupancy
  Tl  Tl1       1.0  0.00000  0.31886  0.24979  1.0000
  Tl  Tl2       1.0  0.00000  0.31886  0.75021  1.0000
  Tl  Tl3       1.0  0.50000  0.68114  0.25021  1.0000
  Tl  Tl4       1.0  0.50000  0.68114  0.74979  1.0000
  Tl  Tl5       1.0  0.00000  0.83026  0.50000  1.0000
  Tl  Tl6       1.0  0.50000  0.16974  0.00000  1.0000
  Bi  Bi1       1.0  0.00000  0.83155  0.00000  1.0000
  Bi  Bi2       1.0  0.50000  0.16845  0.50000  1.0000
