data_image0
_chemical_formula_structural       Bi4Tl6
_chemical_formula_sum              "Bi4 Tl6"
_cell_length_a       8.31679
_cell_length_b       8.31679
_cell_length_c       8.31679
_cell_angle_alpha    133.924
_cell_angle_beta     119.295
_cell_angle_gamma    79.4551

_space_group_name_H-M_alt    "P 1"
_space_group_IT_number       1

loop_
  _space_group_symop_operation_xyz
  'x, y, z'

loop_
  _atom_site_type_symbol
  _atom_site_label
  _atom_site_symmetry_multiplicity
  _atom_site_fract_x
  _atom_site_fract_y
  _atom_site_fract_z
  _atom_site_occupancy
  Bi  Bi1       1.0  0.60206  0.35180  0.25026  1.0000
  Bi  Bi2       1.0  0.39794  0.64820  0.74974  1.0000
  Bi  Bi3       1.0  0.89846  0.14820  0.75026  1.0000
  Bi  Bi4       1.0  0.10154  0.85180  0.24974  1.0000
  Tl  Tl1       1.0  0.52665  0.89420  0.63245  1.0000
  Tl  Tl2       1.0  0.47335  0.10580  0.36755  1.0000
  Tl  Tl3       1.0  0.26175  0.39420  0.86755  1.0000
  Tl  Tl4       1.0  0.73825  0.60580  0.13245  1.0000
  Tl  Tl5       1.0  0.00000  0.75000  0.75000  1.0000
  Tl  Tl6       1.0  0.00000  0.25000  0.25000  1.0000
