data_image0
_chemical_formula_structural       BiSe2
_chemical_formula_sum              "Bi1 Se2"
_cell_length_a       4.23065
_cell_length_b       4.23065
_cell_length_c       5.75064
_cell_angle_alpha    80.8558
_cell_angle_beta     80.8558
_cell_angle_gamma    60.3466

_space_group_name_H-M_alt    "P 1"
_space_group_IT_number       1

loop_
  _space_group_symop_operation_xyz
  'x, y, z'

loop_
  _atom_site_type_symbol
  _atom_site_label
  _atom_site_symmetry_multiplicity
  _atom_site_fract_x
  _atom_site_fract_y
  _atom_site_fract_z
  _atom_site_occupancy
  Bi  Bi1       1.0  0.66648  0.33352  0.50000  1.0000
  Se  Se1       1.0  0.29543  0.96191  0.80033  1.0000
  Se  Se2       1.0  0.03809  0.70457  0.19967  1.0000
