data_image0
_chemical_formula_structural       Se3Bi3
_chemical_formula_sum              "Se3 Bi3"
_cell_length_a       4.60721
_cell_length_b       4.60721
_cell_length_c       9.328
_cell_angle_alpha    90
_cell_angle_beta     90
_cell_angle_gamma    120

_space_group_name_H-M_alt    "P 1"
_space_group_IT_number       1

loop_
  _space_group_symop_operation_xyz
  'x, y, z'

loop_
  _atom_site_type_symbol
  _atom_site_label
  _atom_site_symmetry_multiplicity
  _atom_site_fract_x
  _atom_site_fract_y
  _atom_site_fract_z
  _atom_site_occupancy
  Se  Se1       1.0  0.33608  0.33608  0.00000  1.0000
  Se  Se2       1.0  1.00000  0.66392  0.66667  1.0000
  Se  Se3       1.0  0.66392  1.00000  0.33333  1.0000
  Bi  Bi1       1.0  0.33075  0.33075  0.50000  1.0000
  Bi  Bi2       1.0  0.00000  0.66925  0.16667  1.0000
  Bi  Bi3       1.0  0.66925  0.00000  0.83333  1.0000
