data_image0
_chemical_formula_structural       Bi2Se2
_chemical_formula_sum              "Bi2 Se2"
_cell_length_a       6.35954
_cell_length_b       6.35954
_cell_length_c       4.64205
_cell_angle_alpha    90
_cell_angle_beta     90
_cell_angle_gamma    143.056

_space_group_name_H-M_alt    "P 1"
_space_group_IT_number       1

loop_
  _space_group_symop_operation_xyz
  'x, y, z'

loop_
  _atom_site_type_symbol
  _atom_site_label
  _atom_site_symmetry_multiplicity
  _atom_site_fract_x
  _atom_site_fract_y
  _atom_site_fract_z
  _atom_site_occupancy
  Bi  Bi1       1.0  0.11870  0.88130  0.75000  1.0000
  Bi  Bi2       1.0  0.88130  0.11870  0.25000  1.0000
  Se  Se1       1.0  0.35993  0.64007  0.75000  1.0000
  Se  Se2       1.0  0.64007  0.35993  0.25000  1.0000
