data_image0
_chemical_formula_structural       Se8Bi4
_chemical_formula_sum              "Se8 Bi4"
_cell_length_a       6.8263
_cell_length_b       8.21117
_cell_length_c       7.7923
_cell_angle_alpha    59.649
_cell_angle_beta     90
_cell_angle_gamma    90

_space_group_name_H-M_alt    "P 1"
_space_group_IT_number       1

loop_
  _space_group_symop_operation_xyz
  'x, y, z'

loop_
  _atom_site_type_symbol
  _atom_site_label
  _atom_site_symmetry_multiplicity
  _atom_site_fract_x
  _atom_site_fract_y
  _atom_site_fract_z
  _atom_site_occupancy
  Se  Se1       1.0  0.13264  0.05817  0.38424  1.0000
  Se  Se2       1.0  0.63264  0.94183  0.11576  1.0000
  Se  Se3       1.0  0.86736  0.94183  0.61576  1.0000
  Se  Se4       1.0  0.36736  0.05817  0.88424  1.0000
  Se  Se5       1.0  0.76561  0.49028  0.57852  1.0000
  Se  Se6       1.0  0.26561  0.50972  0.92148  1.0000
  Se  Se7       1.0  0.23439  0.50972  0.42148  1.0000
  Se  Se8       1.0  0.73439  0.49028  0.07852  1.0000
  Bi  Bi1       1.0  0.94242  0.26626  0.97728  1.0000
  Bi  Bi2       1.0  0.44242  0.73374  0.52272  1.0000
  Bi  Bi3       1.0  0.05758  0.73374  0.02272  1.0000
  Bi  Bi4       1.0  0.55758  0.26626  0.47728  1.0000
