data_image0
_chemical_formula_structural       Bi6Se10
_chemical_formula_sum              "Bi6 Se10"
_cell_length_a       4.19347
_cell_length_b       5.92471
_cell_length_c       18.6878
_cell_angle_alpha    90
_cell_angle_beta     90
_cell_angle_gamma    90

_space_group_name_H-M_alt    "P 1"
_space_group_IT_number       1

loop_
  _space_group_symop_operation_xyz
  'x, y, z'

loop_
  _atom_site_type_symbol
  _atom_site_label
  _atom_site_symmetry_multiplicity
  _atom_site_fract_x
  _atom_site_fract_y
  _atom_site_fract_z
  _atom_site_occupancy
  Bi  Bi1       1.0  0.50000  0.52712  0.86695  1.0000
  Bi  Bi2       1.0  0.50000  0.02712  0.63305  1.0000
  Bi  Bi3       1.0  0.00000  0.50000  0.50000  1.0000
  Bi  Bi4       1.0  0.00000  0.00000  0.00000  1.0000
  Bi  Bi5       1.0  0.50000  0.47288  0.13305  1.0000
  Bi  Bi6       1.0  0.50000  0.97288  0.36695  1.0000
  Se  Se1       1.0  0.50000  0.49533  0.38822  1.0000
  Se  Se2       1.0  0.50000  0.50467  0.61178  1.0000
  Se  Se3       1.0  0.00000  0.03264  0.73780  1.0000
  Se  Se4       1.0  0.50000  0.00467  0.88822  1.0000
  Se  Se5       1.0  0.00000  0.46736  0.23780  1.0000
  Se  Se6       1.0  0.00000  0.96736  0.26220  1.0000
  Se  Se7       1.0  0.00000  0.53264  0.76220  1.0000
  Se  Se8       1.0  0.00000  0.50000  0.00000  1.0000
  Se  Se9       1.0  0.00000  0.00000  0.50000  1.0000
  Se  Se10      1.0  0.50000  0.99533  0.11178  1.0000
