data_image0
_chemical_formula_structural       Bi6Se4
_chemical_formula_sum              "Bi6 Se4"
_cell_length_a       7.58249
_cell_length_b       7.58249
_cell_length_c       5.85634
_cell_angle_alpha    90
_cell_angle_beta     90
_cell_angle_gamma    90

_space_group_name_H-M_alt    "P 1"
_space_group_IT_number       1

loop_
  _space_group_symop_operation_xyz
  'x, y, z'

loop_
  _atom_site_type_symbol
  _atom_site_label
  _atom_site_symmetry_multiplicity
  _atom_site_fract_x
  _atom_site_fract_y
  _atom_site_fract_z
  _atom_site_occupancy
  Bi  Bi1       1.0  0.00000  0.00000  0.00000  1.0000
  Bi  Bi2       1.0  0.50000  0.50000  0.00000  1.0000
  Bi  Bi3       1.0  0.14764  0.64764  0.74210  1.0000
  Bi  Bi4       1.0  0.35236  0.14764  0.25790  1.0000
  Bi  Bi5       1.0  0.64764  0.85236  0.25790  1.0000
  Bi  Bi6       1.0  0.85236  0.35236  0.74210  1.0000
  Se  Se1       1.0  0.19827  0.69827  0.29316  1.0000
  Se  Se2       1.0  0.30173  0.19827  0.70684  1.0000
  Se  Se3       1.0  0.69827  0.80173  0.70684  1.0000
  Se  Se4       1.0  0.80173  0.30173  0.29316  1.0000
