data_image0
_chemical_formula_structural       Bi3Tl4
_chemical_formula_sum              "Bi3 Tl4"
_cell_length_a       7.68819
_cell_length_b       7.68819
_cell_length_c       8.21617
_cell_angle_alpha    57.6591
_cell_angle_beta     57.6591
_cell_angle_gamma    40.8476

_space_group_name_H-M_alt    "P 1"
_space_group_IT_number       1

loop_
  _space_group_symop_operation_xyz
  'x, y, z'

loop_
  _atom_site_type_symbol
  _atom_site_label
  _atom_site_symmetry_multiplicity
  _atom_site_fract_x
  _atom_site_fract_y
  _atom_site_fract_z
  _atom_site_occupancy
  Bi  Bi1       1.0  0.00000  0.00000  0.00000  1.0000
  Bi  Bi2       1.0  0.27439  0.27439  0.69847  1.0000
  Bi  Bi3       1.0  0.72561  0.72561  0.30153  1.0000
  Tl  Tl1       1.0  0.10390  0.10390  0.52675  1.0000
  Tl  Tl2       1.0  0.89610  0.89610  0.47325  1.0000
  Tl  Tl3       1.0  0.63130  0.63130  0.02830  1.0000
  Tl  Tl4       1.0  0.36870  0.36870  0.97170  1.0000
