data_image0
_chemical_formula_structural       Bi6Tl4
_chemical_formula_sum              "Bi6 Tl4"
_cell_length_a       7.99141
_cell_length_b       7.99141
_cell_length_c       6.32153
_cell_angle_alpha    90
_cell_angle_beta     90
_cell_angle_gamma    90

_space_group_name_H-M_alt    "P 1"
_space_group_IT_number       1

loop_
  _space_group_symop_operation_xyz
  'x, y, z'

loop_
  _atom_site_type_symbol
  _atom_site_label
  _atom_site_symmetry_multiplicity
  _atom_site_fract_x
  _atom_site_fract_y
  _atom_site_fract_z
  _atom_site_occupancy
  Bi  Bi1       1.0  0.00000  0.00000  0.00000  1.0000
  Bi  Bi2       1.0  0.50000  0.50000  0.00000  1.0000
  Bi  Bi3       1.0  0.13558  0.63558  0.82170  1.0000
  Bi  Bi4       1.0  0.36442  0.13558  0.17830  1.0000
  Bi  Bi5       1.0  0.63558  0.86442  0.17830  1.0000
  Bi  Bi6       1.0  0.86442  0.36442  0.82170  1.0000
  Tl  Tl1       1.0  0.23180  0.73180  0.32508  1.0000
  Tl  Tl2       1.0  0.26820  0.23180  0.67492  1.0000
  Tl  Tl3       1.0  0.73180  0.76820  0.67492  1.0000
  Tl  Tl4       1.0  0.76820  0.26820  0.32508  1.0000
