data_image0
_chemical_formula_structural       Bi6Tl10
_chemical_formula_sum              "Bi6 Tl10"
_cell_length_a       4.80473
_cell_length_b       7.37035
_cell_length_c       14.6481
_cell_angle_alpha    90
_cell_angle_beta     90
_cell_angle_gamma    90

_space_group_name_H-M_alt    "P 1"
_space_group_IT_number       1

loop_
  _space_group_symop_operation_xyz
  'x, y, z'

loop_
  _atom_site_type_symbol
  _atom_site_label
  _atom_site_symmetry_multiplicity
  _atom_site_fract_x
  _atom_site_fract_y
  _atom_site_fract_z
  _atom_site_occupancy
  Bi  Bi1       1.0  0.50000  0.22402  0.88289  1.0000
  Bi  Bi2       1.0  0.50000  0.72402  0.61711  1.0000
  Bi  Bi3       1.0  0.00000  0.50000  0.50000  1.0000
  Bi  Bi4       1.0  0.00000  0.00000  0.00000  1.0000
  Bi  Bi5       1.0  0.50000  0.77598  0.11711  1.0000
  Bi  Bi6       1.0  0.50000  0.27598  0.38289  1.0000
  Tl  Tl1       1.0  0.50000  0.76404  0.37111  1.0000
  Tl  Tl2       1.0  0.50000  0.23596  0.62889  1.0000
  Tl  Tl3       1.0  0.00000  0.98468  0.75178  1.0000
  Tl  Tl4       1.0  0.50000  0.73596  0.87111  1.0000
  Tl  Tl5       1.0  0.00000  0.51532  0.25178  1.0000
  Tl  Tl6       1.0  0.00000  0.01532  0.24822  1.0000
  Tl  Tl7       1.0  0.00000  0.48468  0.74822  1.0000
  Tl  Tl8       1.0  0.00000  0.50000  0.00000  1.0000
  Tl  Tl9       1.0  0.00000  0.00000  0.50000  1.0000
  Tl  Tl10      1.0  0.50000  0.26404  0.12889  1.0000
