data_image0
_chemical_formula_structural       BiTl2
_chemical_formula_sum              "Bi1 Tl2"
_cell_length_a       8.6763
_cell_length_b       8.6763
_cell_length_c       8.6763
_cell_angle_alpha    157.112
_cell_angle_beta     157.112
_cell_angle_gamma    32.5919

_space_group_name_H-M_alt    "P 1"
_space_group_IT_number       1

loop_
  _space_group_symop_operation_xyz
  'x, y, z'

loop_
  _atom_site_type_symbol
  _atom_site_label
  _atom_site_symmetry_multiplicity
  _atom_site_fract_x
  _atom_site_fract_y
  _atom_site_fract_z
  _atom_site_occupancy
  Bi  Bi1       1.0  0.00000  0.00000  0.00000  1.0000
  Tl  Tl1       1.0  0.65945  0.65945  0.00000  1.0000
  Tl  Tl2       1.0  0.34055  0.34055  0.00000  1.0000
