data_image0
_chemical_formula_structural       Tl9Bi13
_chemical_formula_sum              "Tl9 Bi13"
_cell_length_a       11.1351
_cell_length_b       11.1351
_cell_length_c       7.01318
_cell_angle_alpha    90
_cell_angle_beta     90
_cell_angle_gamma    120

_space_group_name_H-M_alt    "P 1"
_space_group_IT_number       1

loop_
  _space_group_symop_operation_xyz
  'x, y, z'

loop_
  _atom_site_type_symbol
  _atom_site_label
  _atom_site_symmetry_multiplicity
  _atom_site_fract_x
  _atom_site_fract_y
  _atom_site_fract_z
  _atom_site_occupancy
  Tl  Tl1       1.0  0.00000  0.00000  0.50000  1.0000
  Tl  Tl2       1.0  0.33333  0.66667  0.67362  1.0000
  Tl  Tl3       1.0  0.66667  0.33333  0.32638  1.0000
  Tl  Tl4       1.0  0.16887  0.83113  0.36207  1.0000
  Tl  Tl5       1.0  0.16887  0.33775  0.36207  1.0000
  Tl  Tl6       1.0  0.66225  0.83113  0.36207  1.0000
  Tl  Tl7       1.0  0.33775  0.16887  0.63793  1.0000
  Tl  Tl8       1.0  0.83113  0.66225  0.63793  1.0000
  Tl  Tl9       1.0  0.83113  0.16887  0.63793  1.0000
  Bi  Bi1       1.0  0.00000  0.00000  0.00000  1.0000
  Bi  Bi2       1.0  0.50000  0.00000  0.00000  1.0000
  Bi  Bi3       1.0  0.00000  0.50000  0.00000  1.0000
  Bi  Bi4       1.0  0.50000  0.50000  0.00000  1.0000
  Bi  Bi5       1.0  0.50000  0.00000  0.50000  1.0000
  Bi  Bi6       1.0  0.00000  0.50000  0.50000  1.0000
  Bi  Bi7       1.0  0.50000  0.50000  0.50000  1.0000
  Bi  Bi8       1.0  0.16773  0.83227  0.88121  1.0000
  Bi  Bi9       1.0  0.16773  0.33545  0.88121  1.0000
  Bi  Bi10      1.0  0.66455  0.83227  0.88121  1.0000
  Bi  Bi11      1.0  0.33545  0.16773  0.11879  1.0000
  Bi  Bi12      1.0  0.83227  0.66455  0.11879  1.0000
  Bi  Bi13      1.0  0.83227  0.16773  0.11879  1.0000
