data_image0
_chemical_formula_structural       Bi2Tl4
_chemical_formula_sum              "Bi2 Tl4"
_cell_length_a       6.15101
_cell_length_b       6.15101
_cell_length_c       5.90779
_cell_angle_alpha    90
_cell_angle_beta     90
_cell_angle_gamma    119.386

_space_group_name_H-M_alt    "P 1"
_space_group_IT_number       1

loop_
  _space_group_symop_operation_xyz
  'x, y, z'

loop_
  _atom_site_type_symbol
  _atom_site_label
  _atom_site_symmetry_multiplicity
  _atom_site_fract_x
  _atom_site_fract_y
  _atom_site_fract_z
  _atom_site_occupancy
  Bi  Bi1       1.0  0.14874  0.14874  0.75000  1.0000
  Bi  Bi2       1.0  0.85126  0.85126  0.25000  1.0000
  Tl  Tl1       1.0  0.49712  0.81821  0.75000  1.0000
  Tl  Tl2       1.0  0.81821  0.49712  0.75000  1.0000
  Tl  Tl3       1.0  0.18179  0.50288  0.25000  1.0000
  Tl  Tl4       1.0  0.50288  0.18179  0.25000  1.0000
