data_image0
_chemical_formula_structural       Bi4Tl12
_chemical_formula_sum              "Bi4 Tl12"
_cell_length_a       10.1425
_cell_length_b       10.1425
_cell_length_c       7.39388
_cell_angle_alpha    90
_cell_angle_beta     90
_cell_angle_gamma    137.694

_space_group_name_H-M_alt    "P 1"
_space_group_IT_number       1

loop_
  _space_group_symop_operation_xyz
  'x, y, z'

loop_
  _atom_site_type_symbol
  _atom_site_label
  _atom_site_symmetry_multiplicity
  _atom_site_fract_x
  _atom_site_fract_y
  _atom_site_fract_z
  _atom_site_occupancy
  Bi  Bi1       1.0  0.62911  0.37089  0.00000  1.0000
  Bi  Bi2       1.0  0.37089  0.62911  0.00000  1.0000
  Bi  Bi3       1.0  0.12911  0.87089  0.50000  1.0000
  Bi  Bi4       1.0  0.87089  0.12911  0.50000  1.0000
  Tl  Tl1       1.0  0.74923  0.74923  0.24762  1.0000
  Tl  Tl2       1.0  0.24923  0.24923  0.25238  1.0000
  Tl  Tl3       1.0  0.75077  0.75077  0.74762  1.0000
  Tl  Tl4       1.0  0.37793  0.62207  0.50000  1.0000
  Tl  Tl5       1.0  0.99669  0.49669  0.75000  1.0000
  Tl  Tl6       1.0  0.87793  0.12207  0.00000  1.0000
  Tl  Tl7       1.0  0.00331  0.50331  0.25000  1.0000
  Tl  Tl8       1.0  0.25077  0.25077  0.75238  1.0000
  Tl  Tl9       1.0  0.62207  0.37793  0.50000  1.0000
  Tl  Tl10      1.0  0.12207  0.87793  0.00000  1.0000
  Tl  Tl11      1.0  0.50331  0.00331  0.25000  1.0000
  Tl  Tl12      1.0  0.49669  0.99669  0.75000  1.0000
