data_image0
_chemical_formula_structural       Cd3Ag4
_chemical_formula_sum              "Cd3 Ag4"
_cell_length_a       7.74752
_cell_length_b       7.74752
_cell_length_c       7.27177
_cell_angle_alpha    58.6188
_cell_angle_beta     58.6188
_cell_angle_gamma    22.275

_space_group_name_H-M_alt    "P 1"
_space_group_IT_number       1

loop_
  _space_group_symop_operation_xyz
  'x, y, z'

loop_
  _atom_site_type_symbol
  _atom_site_label
  _atom_site_symmetry_multiplicity
  _atom_site_fract_x
  _atom_site_fract_y
  _atom_site_fract_z
  _atom_site_occupancy
  Cd  Cd1       1.0  0.00000  0.00000  0.00000  1.0000
  Cd  Cd2       1.0  0.22656  0.22656  0.71639  1.0000
  Cd  Cd3       1.0  0.77344  0.77344  0.28361  1.0000
  Ag  Ag1       1.0  0.07950  0.07950  0.54396  1.0000
  Ag  Ag2       1.0  0.92050  0.92050  0.45604  1.0000
  Ag  Ag3       1.0  0.62434  0.62434  0.14504  1.0000
  Ag  Ag4       1.0  0.37566  0.37566  0.85496  1.0000
