data_image0
_chemical_formula_structural       Cd6Ag4
_chemical_formula_sum              "Cd6 Ag4"
_cell_length_a       7.13167
_cell_length_b       7.13167
_cell_length_c       5.34547
_cell_angle_alpha    90
_cell_angle_beta     90
_cell_angle_gamma    90

_space_group_name_H-M_alt    "P 1"
_space_group_IT_number       1

loop_
  _space_group_symop_operation_xyz
  'x, y, z'

loop_
  _atom_site_type_symbol
  _atom_site_label
  _atom_site_symmetry_multiplicity
  _atom_site_fract_x
  _atom_site_fract_y
  _atom_site_fract_z
  _atom_site_occupancy
  Cd  Cd1       1.0  0.00000  0.00000  0.00000  1.0000
  Cd  Cd2       1.0  0.50000  0.50000  0.00000  1.0000
  Cd  Cd3       1.0  0.16192  0.66192  0.72315  1.0000
  Cd  Cd4       1.0  0.33808  0.16192  0.27685  1.0000
  Cd  Cd5       1.0  0.66192  0.83808  0.27685  1.0000
  Cd  Cd6       1.0  0.83808  0.33808  0.72315  1.0000
  Ag  Ag1       1.0  0.26412  0.76412  0.24015  1.0000
  Ag  Ag2       1.0  0.23588  0.26412  0.75985  1.0000
  Ag  Ag3       1.0  0.76412  0.73588  0.75985  1.0000
  Ag  Ag4       1.0  0.73588  0.23588  0.24015  1.0000
