data_image0
_chemical_formula_structural       Tl4Bi4
_chemical_formula_sum              "Tl4 Bi4"
_cell_length_a       6.3512
_cell_length_b       6.3512
_cell_length_c       6.3512
_cell_angle_alpha    90
_cell_angle_beta     90
_cell_angle_gamma    90

_space_group_name_H-M_alt    "P 1"
_space_group_IT_number       1

loop_
  _space_group_symop_operation_xyz
  'x, y, z'

loop_
  _atom_site_type_symbol
  _atom_site_label
  _atom_site_symmetry_multiplicity
  _atom_site_fract_x
  _atom_site_fract_y
  _atom_site_fract_z
  _atom_site_occupancy
  Tl  Tl1       1.0  0.84584  0.65416  0.34584  1.0000
  Tl  Tl2       1.0  0.65416  0.34584  0.84584  1.0000
  Tl  Tl3       1.0  0.34584  0.84584  0.65416  1.0000
  Tl  Tl4       1.0  0.15416  0.15416  0.15416  1.0000
  Bi  Bi1       1.0  0.16081  0.33919  0.66081  1.0000
  Bi  Bi2       1.0  0.33919  0.66081  0.16081  1.0000
  Bi  Bi3       1.0  0.66081  0.16081  0.33919  1.0000
  Bi  Bi4       1.0  0.83919  0.83919  0.83919  1.0000
