data_image0
_chemical_formula_structural       CdAg2
_chemical_formula_sum              "Cd1 Ag2"
_cell_length_a       2.93688
_cell_length_b       2.93688
_cell_length_c       24.1039
_cell_angle_alpha    90
_cell_angle_beta     90
_cell_angle_gamma    120

_space_group_name_H-M_alt    "P 1"
_space_group_IT_number       1

loop_
  _space_group_symop_operation_xyz
  'x, y, z'

loop_
  _atom_site_type_symbol
  _atom_site_label
  _atom_site_symmetry_multiplicity
  _atom_site_fract_x
  _atom_site_fract_y
  _atom_site_fract_z
  _atom_site_occupancy
  Cd  Cd1       1.0  0.00000  0.00000  0.00000  1.0000
  Ag  Ag1       1.0  0.33333  0.66667  0.10734  1.0000
  Ag  Ag2       1.0  0.33333  0.66667  0.89266  1.0000
