data_image0
_chemical_formula_structural       Cd6Ag10
_chemical_formula_sum              "Cd6 Ag10"
_cell_length_a       4.29448
_cell_length_b       5.98729
_cell_length_c       11.9343
_cell_angle_alpha    90
_cell_angle_beta     90
_cell_angle_gamma    90

_space_group_name_H-M_alt    "P 1"
_space_group_IT_number       1

loop_
  _space_group_symop_operation_xyz
  'x, y, z'

loop_
  _atom_site_type_symbol
  _atom_site_label
  _atom_site_symmetry_multiplicity
  _atom_site_fract_x
  _atom_site_fract_y
  _atom_site_fract_z
  _atom_site_occupancy
  Cd  Cd1       1.0  0.50000  0.27109  0.87194  1.0000
  Cd  Cd2       1.0  0.50000  0.77109  0.62806  1.0000
  Cd  Cd3       1.0  0.00000  0.50000  0.50000  1.0000
  Cd  Cd4       1.0  0.00000  0.00000  0.00000  1.0000
  Cd  Cd5       1.0  0.50000  0.72891  0.12806  1.0000
  Cd  Cd6       1.0  0.50000  0.22891  0.37194  1.0000
  Ag  Ag1       1.0  0.50000  0.73546  0.37497  1.0000
  Ag  Ag2       1.0  0.50000  0.26454  0.62503  1.0000
  Ag  Ag3       1.0  0.00000  0.02042  0.74995  1.0000
  Ag  Ag4       1.0  0.50000  0.76454  0.87497  1.0000
  Ag  Ag5       1.0  0.00000  0.47958  0.24995  1.0000
  Ag  Ag6       1.0  0.00000  0.97958  0.25005  1.0000
  Ag  Ag7       1.0  0.00000  0.52042  0.75005  1.0000
  Ag  Ag8       1.0  0.00000  0.50000  0.00000  1.0000
  Ag  Ag9       1.0  0.00000  0.00000  0.50000  1.0000
  Ag  Ag10      1.0  0.50000  0.23546  0.12503  1.0000
