data_image0
_chemical_formula_structural       BiTl2
_chemical_formula_sum              "Bi1 Tl2"
_cell_length_a       4.65533
_cell_length_b       4.65533
_cell_length_c       5.70362
_cell_angle_alpha    89.8444
_cell_angle_beta     89.8444
_cell_angle_gamma    60.1697

_space_group_name_H-M_alt    "P 1"
_space_group_IT_number       1

loop_
  _space_group_symop_operation_xyz
  'x, y, z'

loop_
  _atom_site_type_symbol
  _atom_site_label
  _atom_site_symmetry_multiplicity
  _atom_site_fract_x
  _atom_site_fract_y
  _atom_site_fract_z
  _atom_site_occupancy
  Bi  Bi1       1.0  0.66671  0.33329  0.50000  1.0000
  Tl  Tl1       1.0  0.33239  0.99910  0.80756  1.0000
  Tl  Tl2       1.0  0.00090  0.66761  0.19244  1.0000
