data_image0
_chemical_formula_structural       Bi4Tl8
_chemical_formula_sum              "Bi4 Tl8"
_cell_length_a       9.10518
_cell_length_b       9.10518
_cell_length_c       9.10518
_cell_angle_alpha    60
_cell_angle_beta     60
_cell_angle_gamma    60

_space_group_name_H-M_alt    "P 1"
_space_group_IT_number       1

loop_
  _space_group_symop_operation_xyz
  'x, y, z'

loop_
  _atom_site_type_symbol
  _atom_site_label
  _atom_site_symmetry_multiplicity
  _atom_site_fract_x
  _atom_site_fract_y
  _atom_site_fract_z
  _atom_site_occupancy
  Bi  Bi1       1.0  0.62500  0.62500  0.62500  1.0000
  Bi  Bi2       1.0  0.12500  0.62500  0.62500  1.0000
  Bi  Bi3       1.0  0.62500  0.12500  0.62500  1.0000
  Bi  Bi4       1.0  0.62500  0.62500  0.12500  1.0000
  Tl  Tl1       1.0  0.87292  0.38125  0.87292  1.0000
  Tl  Tl2       1.0  0.37708  0.37708  0.86875  1.0000
  Tl  Tl3       1.0  0.86875  0.37708  0.37708  1.0000
  Tl  Tl4       1.0  0.37708  0.37708  0.37708  1.0000
  Tl  Tl5       1.0  0.38125  0.87292  0.87292  1.0000
  Tl  Tl6       1.0  0.87292  0.87292  0.87292  1.0000
  Tl  Tl7       1.0  0.87292  0.87292  0.38125  1.0000
  Tl  Tl8       1.0  0.37708  0.86875  0.37708  1.0000
