data_image0
_chemical_formula_structural       Tl10Bi6
_chemical_formula_sum              "Tl10 Bi6"
_cell_length_a       9.79877
_cell_length_b       9.79877
_cell_length_c       9.79877
_cell_angle_alpha    130.051
_cell_angle_beta     130.051
_cell_angle_gamma    73.3251

_space_group_name_H-M_alt    "P 1"
_space_group_IT_number       1

loop_
  _space_group_symop_operation_xyz
  'x, y, z'

loop_
  _atom_site_type_symbol
  _atom_site_label
  _atom_site_symmetry_multiplicity
  _atom_site_fract_x
  _atom_site_fract_y
  _atom_site_fract_z
  _atom_site_occupancy
  Tl  Tl1       1.0  0.49565  0.68099  0.50000  1.0000
  Tl  Tl2       1.0  0.50435  0.31901  0.50000  1.0000
  Tl  Tl3       1.0  0.50000  0.50000  0.00000  1.0000
  Tl  Tl4       1.0  0.00000  0.00000  0.00000  1.0000
  Tl  Tl5       1.0  0.18099  0.99565  0.50000  1.0000
  Tl  Tl6       1.0  0.99565  0.49565  0.81466  1.0000
  Tl  Tl7       1.0  0.68099  0.18099  0.18534  1.0000
  Tl  Tl8       1.0  0.31901  0.81901  0.81466  1.0000
  Tl  Tl9       1.0  0.00435  0.50435  0.18534  1.0000
  Tl  Tl10      1.0  0.81901  0.00435  0.50000  1.0000
  Bi  Bi1       1.0  0.86574  0.63426  0.50000  1.0000
  Bi  Bi2       1.0  0.63426  0.13426  0.76852  1.0000
  Bi  Bi3       1.0  0.36574  0.86574  0.23148  1.0000
  Bi  Bi4       1.0  0.13426  0.36574  0.50000  1.0000
  Bi  Bi5       1.0  0.25000  0.25000  0.00000  1.0000
  Bi  Bi6       1.0  0.75000  0.75000  0.00000  1.0000
