data_image0
_chemical_formula_structural       Cd4Ag6
_chemical_formula_sum              "Cd4 Ag6"
_cell_length_a       7.18714
_cell_length_b       7.18714
_cell_length_c       7.18714
_cell_angle_alpha    136.267
_cell_angle_beta     121.635
_cell_angle_gamma    75.6959

_space_group_name_H-M_alt    "P 1"
_space_group_IT_number       1

loop_
  _space_group_symop_operation_xyz
  'x, y, z'

loop_
  _atom_site_type_symbol
  _atom_site_label
  _atom_site_symmetry_multiplicity
  _atom_site_fract_x
  _atom_site_fract_y
  _atom_site_fract_z
  _atom_site_occupancy
  Cd  Cd1       1.0  0.55437  0.31939  0.23498  1.0000
  Cd  Cd2       1.0  0.44563  0.68061  0.76502  1.0000
  Cd  Cd3       1.0  0.91560  0.18061  0.73498  1.0000
  Cd  Cd4       1.0  0.08440  0.81939  0.26502  1.0000
  Ag  Ag1       1.0  0.57628  0.92175  0.65454  1.0000
  Ag  Ag2       1.0  0.42372  0.07825  0.34546  1.0000
  Ag  Ag3       1.0  0.26721  0.42175  0.84546  1.0000
  Ag  Ag4       1.0  0.73279  0.57825  0.15454  1.0000
  Ag  Ag5       1.0  0.00000  0.75000  0.75000  1.0000
  Ag  Ag6       1.0  0.00000  0.25000  0.25000  1.0000
