data_image0
_chemical_formula_structural       Cd5Ag13
_chemical_formula_sum              "Cd5 Ag13"
_cell_length_a       13.5423
_cell_length_b       13.5423
_cell_length_c       5.9172
_cell_angle_alpha    82.4308
_cell_angle_beta     82.4308
_cell_angle_gamma    18.4302

_space_group_name_H-M_alt    "P 1"
_space_group_IT_number       1

loop_
  _space_group_symop_operation_xyz
  'x, y, z'

loop_
  _atom_site_type_symbol
  _atom_site_label
  _atom_site_symmetry_multiplicity
  _atom_site_fract_x
  _atom_site_fract_y
  _atom_site_fract_z
  _atom_site_occupancy
  Cd  Cd1       1.0  0.00000  0.00000  0.00000  1.0000
  Cd  Cd2       1.0  0.11015  0.11015  0.43430  1.0000
  Cd  Cd3       1.0  0.88985  0.88985  0.56570  1.0000
  Cd  Cd4       1.0  0.33176  0.33176  0.32949  1.0000
  Cd  Cd5       1.0  0.66824  0.66824  0.67051  1.0000
  Ag  Ag1       1.0  0.00000  0.00000  0.50000  1.0000
  Ag  Ag2       1.0  0.11148  0.11148  0.93939  1.0000
  Ag  Ag3       1.0  0.88852  0.88852  0.06061  1.0000
  Ag  Ag4       1.0  0.22177  0.22177  0.38783  1.0000
  Ag  Ag5       1.0  0.77823  0.77823  0.61217  1.0000
  Ag  Ag6       1.0  0.22307  0.22307  0.89094  1.0000
  Ag  Ag7       1.0  0.77693  0.77693  0.10906  1.0000
  Ag  Ag8       1.0  0.33289  0.33289  0.83488  1.0000
  Ag  Ag9       1.0  0.66711  0.66711  0.16512  1.0000
  Ag  Ag10      1.0  0.44434  0.44434  0.28243  1.0000
  Ag  Ag11      1.0  0.55566  0.55566  0.71757  1.0000
  Ag  Ag12      1.0  0.44485  0.44485  0.78324  1.0000
  Ag  Ag13      1.0  0.55515  0.55515  0.21676  1.0000
