data_image0
_chemical_formula_structural       Cd16Ag24
_chemical_formula_sum              "Cd16 Ag24"
_cell_length_a       7.77515
_cell_length_b       7.87957
_cell_length_c       13.0763
_cell_angle_alpha    90
_cell_angle_beta     90
_cell_angle_gamma    90

_space_group_name_H-M_alt    "P 1"
_space_group_IT_number       1

loop_
  _space_group_symop_operation_xyz
  'x, y, z'

loop_
  _atom_site_type_symbol
  _atom_site_label
  _atom_site_symmetry_multiplicity
  _atom_site_fract_x
  _atom_site_fract_y
  _atom_site_fract_z
  _atom_site_occupancy
  Cd  Cd1       1.0  0.91127  0.75000  0.97172  1.0000
  Cd  Cd2       1.0  0.41127  0.25000  0.52828  1.0000
  Cd  Cd3       1.0  0.08873  0.25000  0.02828  1.0000
  Cd  Cd4       1.0  0.58873  0.75000  0.47172  1.0000
  Cd  Cd5       1.0  0.50112  0.75000  0.04820  1.0000
  Cd  Cd6       1.0  0.00112  0.25000  0.45180  1.0000
  Cd  Cd7       1.0  0.49888  0.25000  0.95180  1.0000
  Cd  Cd8       1.0  0.99888  0.75000  0.54820  1.0000
  Cd  Cd9       1.0  0.57180  0.44218  0.32718  1.0000
  Cd  Cd10      1.0  0.07180  0.55782  0.17282  1.0000
  Cd  Cd11      1.0  0.42820  0.94218  0.67282  1.0000
  Cd  Cd12      1.0  0.92820  0.05782  0.82718  1.0000
  Cd  Cd13      1.0  0.42820  0.55782  0.67282  1.0000
  Cd  Cd14      1.0  0.92820  0.44218  0.82718  1.0000
  Cd  Cd15      1.0  0.57180  0.05782  0.32718  1.0000
  Cd  Cd16      1.0  0.07180  0.94218  0.17282  1.0000
  Ag  Ag1       1.0  0.74395  0.75000  0.20642  1.0000
  Ag  Ag2       1.0  0.24395  0.25000  0.29358  1.0000
  Ag  Ag3       1.0  0.25605  0.25000  0.79358  1.0000
  Ag  Ag4       1.0  0.75605  0.75000  0.70642  1.0000
  Ag  Ag5       1.0  0.36885  0.75000  0.25858  1.0000
  Ag  Ag6       1.0  0.86885  0.25000  0.24142  1.0000
  Ag  Ag7       1.0  0.63115  0.25000  0.74142  1.0000
  Ag  Ag8       1.0  0.13115  0.75000  0.75858  1.0000
  Ag  Ag9       1.0  0.76099  0.05804  0.06272  1.0000
  Ag  Ag10      1.0  0.26099  0.94196  0.43728  1.0000
  Ag  Ag11      1.0  0.23901  0.55804  0.93728  1.0000
  Ag  Ag12      1.0  0.73901  0.44196  0.56272  1.0000
  Ag  Ag13      1.0  0.23901  0.94196  0.93728  1.0000
  Ag  Ag14      1.0  0.73901  0.05804  0.56272  1.0000
  Ag  Ag15      1.0  0.76099  0.44196  0.06272  1.0000
  Ag  Ag16      1.0  0.26099  0.55804  0.43728  1.0000
  Ag  Ag17      1.0  0.40664  0.06587  0.13142  1.0000
  Ag  Ag18      1.0  0.90664  0.93413  0.36858  1.0000
  Ag  Ag19      1.0  0.59336  0.56587  0.86858  1.0000
  Ag  Ag20      1.0  0.09336  0.43413  0.63142  1.0000
  Ag  Ag21      1.0  0.59336  0.93413  0.86858  1.0000
  Ag  Ag22      1.0  0.09336  0.06587  0.63142  1.0000
  Ag  Ag23      1.0  0.40664  0.43413  0.13142  1.0000
  Ag  Ag24      1.0  0.90664  0.56587  0.36858  1.0000
