data_image0
_chemical_formula_structural       Cd2Ag4
_chemical_formula_sum              "Cd2 Ag4"
_cell_length_a       5.20885
_cell_length_b       5.20885
_cell_length_c       4.90398
_cell_angle_alpha    90
_cell_angle_beta     90
_cell_angle_gamma    121.215

_space_group_name_H-M_alt    "P 1"
_space_group_IT_number       1

loop_
  _space_group_symop_operation_xyz
  'x, y, z'

loop_
  _atom_site_type_symbol
  _atom_site_label
  _atom_site_symmetry_multiplicity
  _atom_site_fract_x
  _atom_site_fract_y
  _atom_site_fract_z
  _atom_site_occupancy
  Cd  Cd1       1.0  0.18224  0.18224  0.75000  1.0000
  Cd  Cd2       1.0  0.81776  0.81776  0.25000  1.0000
  Ag  Ag1       1.0  0.50818  0.84389  0.75000  1.0000
  Ag  Ag2       1.0  0.84389  0.50818  0.75000  1.0000
  Ag  Ag3       1.0  0.15611  0.49182  0.25000  1.0000
  Ag  Ag4       1.0  0.49182  0.15611  0.25000  1.0000
