data_image0
_chemical_formula_structural       Bi2Tl2
_chemical_formula_sum              "Bi2 Tl2"
_cell_length_a       4.97132
_cell_length_b       4.97132
_cell_length_c       8.07546
_cell_angle_alpha    90
_cell_angle_beta     90
_cell_angle_gamma    120

_space_group_name_H-M_alt    "P 1"
_space_group_IT_number       1

loop_
  _space_group_symop_operation_xyz
  'x, y, z'

loop_
  _atom_site_type_symbol
  _atom_site_label
  _atom_site_symmetry_multiplicity
  _atom_site_fract_x
  _atom_site_fract_y
  _atom_site_fract_z
  _atom_site_occupancy
  Bi  Bi1       1.0  0.66667  0.33333  0.50057  1.0000
  Bi  Bi2       1.0  0.33333  0.66667  0.00057  1.0000
  Tl  Tl1       1.0  0.66667  0.33333  0.87943  1.0000
  Tl  Tl2       1.0  0.33333  0.66667  0.37943  1.0000
