data_image0
_chemical_formula_structural       Bi4Tl8
_chemical_formula_sum              "Bi4 Tl8"
_cell_length_a       11.6173
_cell_length_b       11.6173
_cell_length_c       9.52388
_cell_angle_alpha    90
_cell_angle_beta     90
_cell_angle_gamma    162.177

_space_group_name_H-M_alt    "P 1"
_space_group_IT_number       1

loop_
  _space_group_symop_operation_xyz
  'x, y, z'

loop_
  _atom_site_type_symbol
  _atom_site_label
  _atom_site_symmetry_multiplicity
  _atom_site_fract_x
  _atom_site_fract_y
  _atom_site_fract_z
  _atom_site_occupancy
  Bi  Bi1       1.0  0.56071  0.43929  0.81163  1.0000
  Bi  Bi2       1.0  0.43929  0.56071  0.31163  1.0000
  Bi  Bi3       1.0  0.20550  0.79450  0.25193  1.0000
  Bi  Bi4       1.0  0.79450  0.20550  0.75193  1.0000
  Tl  Tl1       1.0  0.95649  0.04351  0.00104  1.0000
  Tl  Tl2       1.0  0.04351  0.95649  0.50104  1.0000
  Tl  Tl3       1.0  0.17962  0.82038  0.90561  1.0000
  Tl  Tl4       1.0  0.82038  0.17962  0.40561  1.0000
  Tl  Tl5       1.0  0.32505  0.67495  0.04655  1.0000
  Tl  Tl6       1.0  0.67495  0.32505  0.54655  1.0000
  Tl  Tl7       1.0  0.58329  0.41671  0.16894  1.0000
  Tl  Tl8       1.0  0.41671  0.58329  0.66894  1.0000
