data_image0
_chemical_formula_structural       CdAg4
_chemical_formula_sum              "Cd1 Ag4"
_cell_length_a       5.15284
_cell_length_b       5.15284
_cell_length_c       5.15284
_cell_angle_alpha    99.4811
_cell_angle_beta     99.4811
_cell_angle_gamma    132.11

_space_group_name_H-M_alt    "P 1"
_space_group_IT_number       1

loop_
  _space_group_symop_operation_xyz
  'x, y, z'

loop_
  _atom_site_type_symbol
  _atom_site_label
  _atom_site_symmetry_multiplicity
  _atom_site_fract_x
  _atom_site_fract_y
  _atom_site_fract_z
  _atom_site_occupancy
  Cd  Cd1       1.0  0.00000  0.00000  0.00000  1.0000
  Ag  Ag1       1.0  0.60010  0.80172  0.40182  1.0000
  Ag  Ag2       1.0  0.39990  0.19828  0.59818  1.0000
  Ag  Ag3       1.0  0.19828  0.60010  0.79838  1.0000
  Ag  Ag4       1.0  0.80172  0.39990  0.20162  1.0000
