data_image0
_chemical_formula_structural       Cd2Ag3
_chemical_formula_sum              "Cd2 Ag3"
_cell_length_a       11.9946
_cell_length_b       11.9946
_cell_length_c       11.9946
_cell_angle_alpha    14.714
_cell_angle_beta     14.714
_cell_angle_gamma    14.714

_space_group_name_H-M_alt    "P 1"
_space_group_IT_number       1

loop_
  _space_group_symop_operation_xyz
  'x, y, z'

loop_
  _atom_site_type_symbol
  _atom_site_label
  _atom_site_symmetry_multiplicity
  _atom_site_fract_x
  _atom_site_fract_y
  _atom_site_fract_z
  _atom_site_occupancy
  Cd  Cd1       1.0  0.59967  0.59967  0.59967  1.0000
  Cd  Cd2       1.0  0.40033  0.40033  0.40033  1.0000
  Ag  Ag1       1.0  0.00000  0.00000  0.00000  1.0000
  Ag  Ag2       1.0  0.19912  0.19912  0.19912  1.0000
  Ag  Ag3       1.0  0.80088  0.80088  0.80088  1.0000
