data_image0
_chemical_formula_structural       Ag9Cd13
_chemical_formula_sum              "Ag9 Cd13"
_cell_length_a       9.49088
_cell_length_b       9.49088
_cell_length_c       5.90982
_cell_angle_alpha    90
_cell_angle_beta     90
_cell_angle_gamma    120

_space_group_name_H-M_alt    "P 1"
_space_group_IT_number       1

loop_
  _space_group_symop_operation_xyz
  'x, y, z'

loop_
  _atom_site_type_symbol
  _atom_site_label
  _atom_site_symmetry_multiplicity
  _atom_site_fract_x
  _atom_site_fract_y
  _atom_site_fract_z
  _atom_site_occupancy
  Ag  Ag1       1.0  0.00000  0.00000  0.50000  1.0000
  Ag  Ag2       1.0  0.33333  0.66667  0.87883  1.0000
  Ag  Ag3       1.0  0.66667  0.33333  0.12117  1.0000
  Ag  Ag4       1.0  0.19371  0.80629  0.23826  1.0000
  Ag  Ag5       1.0  0.19371  0.38742  0.23826  1.0000
  Ag  Ag6       1.0  0.61258  0.80629  0.23826  1.0000
  Ag  Ag7       1.0  0.38742  0.19371  0.76174  1.0000
  Ag  Ag8       1.0  0.80629  0.61258  0.76174  1.0000
  Ag  Ag9       1.0  0.80629  0.19371  0.76174  1.0000
  Cd  Cd1       1.0  0.00000  0.00000  0.00000  1.0000
  Cd  Cd2       1.0  0.50000  0.00000  0.00000  1.0000
  Cd  Cd3       1.0  1.00000  0.50000  0.00000  1.0000
  Cd  Cd4       1.0  0.50000  0.50000  0.00000  1.0000
  Cd  Cd5       1.0  0.50000  0.00000  0.50000  1.0000
  Cd  Cd6       1.0  1.00000  0.50000  0.50000  1.0000
  Cd  Cd7       1.0  0.50000  0.50000  0.50000  1.0000
  Cd  Cd8       1.0  0.15990  0.84010  0.73179  1.0000
  Cd  Cd9       1.0  0.15990  0.31981  0.73179  1.0000
  Cd  Cd10      1.0  0.68019  0.84010  0.73179  1.0000
  Cd  Cd11      1.0  0.31981  0.15990  0.26821  1.0000
  Cd  Cd12      1.0  0.84010  0.68019  0.26821  1.0000
  Cd  Cd13      1.0  0.84010  0.15990  0.26821  1.0000
