data_image0
_chemical_formula_structural       Au6Cd2
_chemical_formula_sum              "Au6 Cd2"
_cell_length_a       4.89639
_cell_length_b       5.17694
_cell_length_c       5.90069
_cell_angle_alpha    90
_cell_angle_beta     90
_cell_angle_gamma    90

_space_group_name_H-M_alt    "P 1"
_space_group_IT_number       1

loop_
  _space_group_symop_operation_xyz
  'x, y, z'

loop_
  _atom_site_type_symbol
  _atom_site_label
  _atom_site_symmetry_multiplicity
  _atom_site_fract_x
  _atom_site_fract_y
  _atom_site_fract_z
  _atom_site_occupancy
  Au  Au1       1.0  0.00000  0.33338  0.25031  1.0000
  Au  Au2       1.0  0.00000  0.33338  0.74969  1.0000
  Au  Au3       1.0  0.50000  0.66662  0.24969  1.0000
  Au  Au4       1.0  0.50000  0.66662  0.75031  1.0000
  Au  Au5       1.0  0.00000  0.82914  0.50000  1.0000
  Au  Au6       1.0  0.50000  0.17086  0.00000  1.0000
  Cd  Cd1       1.0  0.00000  0.83529  0.00000  1.0000
  Cd  Cd2       1.0  0.50000  0.16471  0.50000  1.0000
