data_image0
_chemical_formula_structural       Cd4Ag12
_chemical_formula_sum              "Cd4 Ag12"
_cell_length_a       9.0281
_cell_length_b       9.0281
_cell_length_c       5.89659
_cell_angle_alpha    90
_cell_angle_beta     90
_cell_angle_gamma    141.555

_space_group_name_H-M_alt    "P 1"
_space_group_IT_number       1

loop_
  _space_group_symop_operation_xyz
  'x, y, z'

loop_
  _atom_site_type_symbol
  _atom_site_label
  _atom_site_symmetry_multiplicity
  _atom_site_fract_x
  _atom_site_fract_y
  _atom_site_fract_z
  _atom_site_occupancy
  Cd  Cd1       1.0  0.62569  0.37431  0.00000  1.0000
  Cd  Cd2       1.0  0.37431  0.62569  0.00000  1.0000
  Cd  Cd3       1.0  0.12569  0.87431  0.50000  1.0000
  Cd  Cd4       1.0  0.87431  0.12569  0.50000  1.0000
  Ag  Ag1       1.0  0.75168  0.75168  0.25161  1.0000
  Ag  Ag2       1.0  0.25168  0.25168  0.24839  1.0000
  Ag  Ag3       1.0  0.74832  0.74832  0.75161  1.0000
  Ag  Ag4       1.0  0.37589  0.62411  0.50000  1.0000
  Ag  Ag5       1.0  0.99985  0.49985  0.75000  1.0000
  Ag  Ag6       1.0  0.87589  0.12411  0.00000  1.0000
  Ag  Ag7       1.0  0.00015  0.50015  0.25000  1.0000
  Ag  Ag8       1.0  0.24832  0.24832  0.74839  1.0000
  Ag  Ag9       1.0  0.62411  0.37589  0.50000  1.0000
  Ag  Ag10      1.0  0.12411  0.87589  0.00000  1.0000
  Ag  Ag11      1.0  0.50015  0.00015  0.25000  1.0000
  Ag  Ag12      1.0  0.49985  0.99985  0.75000  1.0000
