data_image0
_chemical_formula_structural       Cd6Au8
_chemical_formula_sum              "Cd6 Au8"
_cell_length_a       8.23064
_cell_length_b       8.23064
_cell_length_c       8.23064
_cell_angle_alpha    60
_cell_angle_beta     60
_cell_angle_gamma    60

_space_group_name_H-M_alt    "P 1"
_space_group_IT_number       1

loop_
  _space_group_symop_operation_xyz
  'x, y, z'

loop_
  _atom_site_type_symbol
  _atom_site_label
  _atom_site_symmetry_multiplicity
  _atom_site_fract_x
  _atom_site_fract_y
  _atom_site_fract_z
  _atom_site_occupancy
  Cd  Cd1       1.0  0.50000  0.50000  0.50000  1.0000
  Cd  Cd2       1.0  0.12500  0.12500  0.62500  1.0000
  Cd  Cd3       1.0  0.12500  0.12500  0.12500  1.0000
  Cd  Cd4       1.0  0.12500  0.62500  0.12500  1.0000
  Cd  Cd5       1.0  0.75000  0.75000  0.75000  1.0000
  Cd  Cd6       1.0  0.62500  0.12500  0.12500  1.0000
  Au  Au1       1.0  0.88589  0.88589  0.88589  1.0000
  Au  Au2       1.0  0.88589  0.88589  0.34232  1.0000
  Au  Au3       1.0  0.36411  0.36411  0.36411  1.0000
  Au  Au4       1.0  0.36411  0.36411  0.90768  1.0000
  Au  Au5       1.0  0.88589  0.34232  0.88589  1.0000
  Au  Au6       1.0  0.36411  0.90768  0.36411  1.0000
  Au  Au7       1.0  0.90768  0.36411  0.36411  1.0000
  Au  Au8       1.0  0.34232  0.88589  0.88589  1.0000
