data_image0
_chemical_formula_structural       CdAg3
_chemical_formula_sum              "Cd1 Ag3"
_cell_length_a       9.89754
_cell_length_b       9.89754
_cell_length_c       9.89754
_cell_angle_alpha    17.4071
_cell_angle_beta     17.4071
_cell_angle_gamma    17.4071

_space_group_name_H-M_alt    "P 1"
_space_group_IT_number       1

loop_
  _space_group_symop_operation_xyz
  'x, y, z'

loop_
  _atom_site_type_symbol
  _atom_site_label
  _atom_site_symmetry_multiplicity
  _atom_site_fract_x
  _atom_site_fract_y
  _atom_site_fract_z
  _atom_site_occupancy
  Cd  Cd1       1.0  0.00000  0.00000  0.00000  1.0000
  Ag  Ag1       1.0  0.24757  0.24757  0.24757  1.0000
  Ag  Ag2       1.0  0.50000  0.50000  0.50000  1.0000
  Ag  Ag3       1.0  0.75243  0.75243  0.75243  1.0000
