data_image0
_chemical_formula_structural       Cd9Ag5
_chemical_formula_sum              "Cd9 Ag5"
_cell_length_a       6.6218
_cell_length_b       6.6218
_cell_length_c       7.97892
_cell_angle_alpha    72.071
_cell_angle_beta     72.071
_cell_angle_gamma    76.1368

_space_group_name_H-M_alt    "P 1"
_space_group_IT_number       1

loop_
  _space_group_symop_operation_xyz
  'x, y, z'

loop_
  _atom_site_type_symbol
  _atom_site_label
  _atom_site_symmetry_multiplicity
  _atom_site_fract_x
  _atom_site_fract_y
  _atom_site_fract_z
  _atom_site_occupancy
  Cd  Cd1       1.0  0.40700  0.18087  0.30214  1.0000
  Cd  Cd2       1.0  0.81913  0.59300  0.69786  1.0000
  Cd  Cd3       1.0  0.21527  0.98262  0.10826  1.0000
  Cd  Cd4       1.0  0.05937  0.56623  0.31481  1.0000
  Cd  Cd5       1.0  0.43377  0.94063  0.68519  1.0000
  Cd  Cd6       1.0  0.60738  0.39262  0.50000  1.0000
  Cd  Cd7       1.0  0.01738  0.78473  0.89174  1.0000
  Cd  Cd8       1.0  0.84383  0.36178  0.10252  1.0000
  Cd  Cd9       1.0  0.63822  0.15617  0.89748  1.0000
  Ag  Ag1       1.0  0.02538  0.17078  0.60032  1.0000
  Ag  Ag2       1.0  0.42835  0.57165  0.00000  1.0000
  Ag  Ag3       1.0  0.82922  0.97462  0.39968  1.0000
  Ag  Ag4       1.0  0.22561  0.36791  0.79633  1.0000
  Ag  Ag5       1.0  0.63209  0.77439  0.20367  1.0000
