data_image0
_chemical_formula_structural       Cd6Au4
_chemical_formula_sum              "Cd6 Au4"
_cell_length_a       7.48651
_cell_length_b       7.48651
_cell_length_c       3.80077
_cell_angle_alpha    90
_cell_angle_beta     90
_cell_angle_gamma    90

_space_group_name_H-M_alt    "P 1"
_space_group_IT_number       1

loop_
  _space_group_symop_operation_xyz
  'x, y, z'

loop_
  _atom_site_type_symbol
  _atom_site_label
  _atom_site_symmetry_multiplicity
  _atom_site_fract_x
  _atom_site_fract_y
  _atom_site_fract_z
  _atom_site_occupancy
  Cd  Cd1       1.0  0.00000  0.00000  0.00000  1.0000
  Cd  Cd2       1.0  0.50000  0.50000  0.00000  1.0000
  Cd  Cd3       1.0  0.15704  0.65704  0.50047  1.0000
  Cd  Cd4       1.0  0.34296  0.15704  0.49953  1.0000
  Cd  Cd5       1.0  0.65704  0.84296  0.49953  1.0000
  Cd  Cd6       1.0  0.84296  0.34296  0.50047  1.0000
  Au  Au1       1.0  0.35758  0.85758  0.99805  1.0000
  Au  Au2       1.0  0.14242  0.35758  0.00195  1.0000
  Au  Au3       1.0  0.85758  0.64242  0.00195  1.0000
  Au  Au4       1.0  0.64242  0.14242  0.99805  1.0000
