data_image0
_chemical_formula_structural       Cd6Ag16
_chemical_formula_sum              "Cd6 Ag16"
_cell_length_a       5.38585
_cell_length_b       5.91066
_cell_length_c       13.5743
_cell_angle_alpha    81.5661
_cell_angle_beta     90
_cell_angle_gamma    90

_space_group_name_H-M_alt    "P 1"
_space_group_IT_number       1

loop_
  _space_group_symop_operation_xyz
  'x, y, z'

loop_
  _atom_site_type_symbol
  _atom_site_label
  _atom_site_symmetry_multiplicity
  _atom_site_fract_x
  _atom_site_fract_y
  _atom_site_fract_z
  _atom_site_occupancy
  Cd  Cd1       1.0  0.64951  0.94152  0.79105  1.0000
  Cd  Cd2       1.0  0.35049  0.05848  0.20895  1.0000
  Cd  Cd3       1.0  0.50000  0.00000  0.00000  1.0000
  Cd  Cd4       1.0  0.14951  0.05848  0.70895  1.0000
  Cd  Cd5       1.0  0.85049  0.94152  0.29105  1.0000
  Cd  Cd6       1.0  0.00000  0.00000  0.50000  1.0000
  Ag  Ag1       1.0  0.55915  0.57375  0.22195  1.0000
  Ag  Ag2       1.0  0.68496  0.26170  0.61279  1.0000
  Ag  Ag3       1.0  0.70890  0.57268  0.94319  1.0000
  Ag  Ag4       1.0  0.48536  0.20100  0.40838  1.0000
  Ag  Ag5       1.0  0.01464  0.20100  0.90838  1.0000
  Ag  Ag6       1.0  0.81504  0.26170  0.11279  1.0000
  Ag  Ag7       1.0  0.79110  0.57268  0.44319  1.0000
  Ag  Ag8       1.0  0.94085  0.57375  0.72195  1.0000
  Ag  Ag9       1.0  0.18496  0.73830  0.88721  1.0000
  Ag  Ag10      1.0  0.98536  0.79900  0.09162  1.0000
  Ag  Ag11      1.0  0.20890  0.42732  0.55681  1.0000
  Ag  Ag12      1.0  0.05915  0.42625  0.27805  1.0000
  Ag  Ag13      1.0  0.29110  0.42732  0.05681  1.0000
  Ag  Ag14      1.0  0.44085  0.42625  0.77805  1.0000
  Ag  Ag15      1.0  0.31504  0.73830  0.38721  1.0000
  Ag  Ag16      1.0  0.51464  0.79900  0.59162  1.0000
