data_image0
_chemical_formula_structural       Au9Cd13
_chemical_formula_sum              "Au9 Cd13"
_cell_length_a       9.48691
_cell_length_b       9.48691
_cell_length_c       5.85778
_cell_angle_alpha    90
_cell_angle_beta     90
_cell_angle_gamma    120

_space_group_name_H-M_alt    "P 1"
_space_group_IT_number       1

loop_
  _space_group_symop_operation_xyz
  'x, y, z'

loop_
  _atom_site_type_symbol
  _atom_site_label
  _atom_site_symmetry_multiplicity
  _atom_site_fract_x
  _atom_site_fract_y
  _atom_site_fract_z
  _atom_site_occupancy
  Au  Au1       1.0  0.00000  0.00000  0.50000  1.0000
  Au  Au2       1.0  0.33333  0.66667  0.74616  1.0000
  Au  Au3       1.0  0.66667  0.33333  0.25384  1.0000
  Au  Au4       1.0  0.19269  0.80731  0.23890  1.0000
  Au  Au5       1.0  0.19269  0.38539  0.23890  1.0000
  Au  Au6       1.0  0.61461  0.80731  0.23890  1.0000
  Au  Au7       1.0  0.38539  0.19269  0.76110  1.0000
  Au  Au8       1.0  0.80731  0.61461  0.76110  1.0000
  Au  Au9       1.0  0.80731  0.19269  0.76110  1.0000
  Cd  Cd1       1.0  0.00000  0.00000  0.00000  1.0000
  Cd  Cd2       1.0  0.50000  0.00000  0.00000  1.0000
  Cd  Cd3       1.0  0.00000  0.50000  0.00000  1.0000
  Cd  Cd4       1.0  0.50000  0.50000  0.00000  1.0000
  Cd  Cd5       1.0  0.50000  0.00000  0.50000  1.0000
  Cd  Cd6       1.0  0.00000  0.50000  0.50000  1.0000
  Cd  Cd7       1.0  0.50000  0.50000  0.50000  1.0000
  Cd  Cd8       1.0  0.15751  0.84249  0.73490  1.0000
  Cd  Cd9       1.0  0.15751  0.31501  0.73490  1.0000
  Cd  Cd10      1.0  0.68499  0.84249  0.73490  1.0000
  Cd  Cd11      1.0  0.31501  0.15751  0.26510  1.0000
  Cd  Cd12      1.0  0.84249  0.68499  0.26510  1.0000
  Cd  Cd13      1.0  0.84249  0.15751  0.26510  1.0000
