data_image0
_chemical_formula_structural       Cd2Au4
_chemical_formula_sum              "Cd2 Au4"
_cell_length_a       5.80166
_cell_length_b       5.80166
_cell_length_c       5.80166
_cell_angle_alpha    123.517
_cell_angle_beta     123.517
_cell_angle_gamma    84.01

_space_group_name_H-M_alt    "P 1"
_space_group_IT_number       1

loop_
  _space_group_symop_operation_xyz
  'x, y, z'

loop_
  _atom_site_type_symbol
  _atom_site_label
  _atom_site_symmetry_multiplicity
  _atom_site_fract_x
  _atom_site_fract_y
  _atom_site_fract_z
  _atom_site_occupancy
  Cd  Cd1       1.0  0.75000  0.75000  0.00000  1.0000
  Cd  Cd2       1.0  0.25000  0.25000  0.00000  1.0000
  Au  Au1       1.0  0.68425  0.18425  0.86849  1.0000
  Au  Au2       1.0  0.18425  0.31575  0.50000  1.0000
  Au  Au3       1.0  0.81575  0.68425  0.50000  1.0000
  Au  Au4       1.0  0.31575  0.81575  0.13151  1.0000
