data_image0
_chemical_formula_structural       Ag8Cd4
_chemical_formula_sum              "Ag8 Cd4"
_cell_length_a       9.8762
_cell_length_b       2.97621
_cell_length_c       7.88955
_cell_angle_alpha    81.5058
_cell_angle_beta     90
_cell_angle_gamma    90

_space_group_name_H-M_alt    "P 1"
_space_group_IT_number       1

loop_
  _space_group_symop_operation_xyz
  'x, y, z'

loop_
  _atom_site_type_symbol
  _atom_site_label
  _atom_site_symmetry_multiplicity
  _atom_site_fract_x
  _atom_site_fract_y
  _atom_site_fract_z
  _atom_site_occupancy
  Ag  Ag1       1.0  0.37390  0.44766  0.37722  1.0000
  Ag  Ag2       1.0  0.62610  0.44766  0.87722  1.0000
  Ag  Ag3       1.0  0.37283  0.77993  0.70981  1.0000
  Ag  Ag4       1.0  0.87378  0.24555  0.31842  1.0000
  Ag  Ag5       1.0  0.62717  0.77993  0.20981  1.0000
  Ag  Ag6       1.0  0.12622  0.24555  0.81842  1.0000
  Ag  Ag7       1.0  0.87394  0.58108  0.65010  1.0000
  Ag  Ag8       1.0  0.12606  0.58108  0.15010  1.0000
  Cd  Cd1       1.0  0.37468  0.11508  0.04344  1.0000
  Cd  Cd2       1.0  0.62532  0.11508  0.54344  1.0000
  Cd  Cd3       1.0  0.87407  0.91400  0.98431  1.0000
  Cd  Cd4       1.0  0.12593  0.91400  0.48431  1.0000
