data_image0
_chemical_formula_structural       Au10Cd4
_chemical_formula_sum              "Au10 Cd4"
_cell_length_a       7.91944
_cell_length_b       7.91944
_cell_length_c       7.09789
_cell_angle_alpha    64.0756
_cell_angle_beta     64.0756
_cell_angle_gamma    44.045

_space_group_name_H-M_alt    "P 1"
_space_group_IT_number       1

loop_
  _space_group_symop_operation_xyz
  'x, y, z'

loop_
  _atom_site_type_symbol
  _atom_site_label
  _atom_site_symmetry_multiplicity
  _atom_site_fract_x
  _atom_site_fract_y
  _atom_site_fract_z
  _atom_site_occupancy
  Au  Au1       1.0  0.25197  0.74803  0.00000  1.0000
  Au  Au2       1.0  0.74803  0.25197  0.00000  1.0000
  Au  Au3       1.0  0.62981  0.62981  0.14757  1.0000
  Au  Au4       1.0  0.37019  0.37019  0.85243  1.0000
  Au  Au5       1.0  0.10304  0.10304  0.59731  1.0000
  Au  Au6       1.0  0.89696  0.89696  0.40269  1.0000
  Au  Au7       1.0  0.48141  0.97861  0.74293  1.0000
  Au  Au8       1.0  0.02139  0.51859  0.25707  1.0000
  Au  Au9       1.0  0.97861  0.48141  0.74293  1.0000
  Au  Au10      1.0  0.51859  0.02139  0.25707  1.0000
  Cd  Cd1       1.0  0.12115  0.12115  0.16795  1.0000
  Cd  Cd2       1.0  0.87885  0.87885  0.83205  1.0000
  Cd  Cd3       1.0  0.59262  0.59262  0.58676  1.0000
  Cd  Cd4       1.0  0.40738  0.40738  0.41324  1.0000
