data_image0
_chemical_formula_structural       Cd3Ag6
_chemical_formula_sum              "Cd3 Ag6"
_cell_length_a       5.14175
_cell_length_b       5.14175
_cell_length_c       7.57176
_cell_angle_alpha    90
_cell_angle_beta     90
_cell_angle_gamma    120

_space_group_name_H-M_alt    "P 1"
_space_group_IT_number       1

loop_
  _space_group_symop_operation_xyz
  'x, y, z'

loop_
  _atom_site_type_symbol
  _atom_site_label
  _atom_site_symmetry_multiplicity
  _atom_site_fract_x
  _atom_site_fract_y
  _atom_site_fract_z
  _atom_site_occupancy
  Cd  Cd1       1.0  0.00000  0.50000  0.16667  1.0000
  Cd  Cd2       1.0  0.50000  0.50000  0.83333  1.0000
  Cd  Cd3       1.0  0.50000  0.00000  0.50000  1.0000
  Ag  Ag1       1.0  0.83483  0.66965  0.50000  1.0000
  Ag  Ag2       1.0  0.16517  0.83483  0.83333  1.0000
  Ag  Ag3       1.0  0.66965  0.83483  0.16667  1.0000
  Ag  Ag4       1.0  0.16517  0.33035  0.50000  1.0000
  Ag  Ag5       1.0  0.83483  0.16517  0.83333  1.0000
  Ag  Ag6       1.0  0.33035  0.16517  0.16667  1.0000
