data_image0
_chemical_formula_structural       CdAu4
_chemical_formula_sum              "Cd1 Au4"
_cell_length_a       5.16683
_cell_length_b       5.16683
_cell_length_c       5.16683
_cell_angle_alpha    99.3778
_cell_angle_beta     99.3778
_cell_angle_gamma    132.385

_space_group_name_H-M_alt    "P 1"
_space_group_IT_number       1

loop_
  _space_group_symop_operation_xyz
  'x, y, z'

loop_
  _atom_site_type_symbol
  _atom_site_label
  _atom_site_symmetry_multiplicity
  _atom_site_fract_x
  _atom_site_fract_y
  _atom_site_fract_z
  _atom_site_occupancy
  Cd  Cd1       1.0  0.00000  0.00000  0.00000  1.0000
  Au  Au1       1.0  0.60075  0.80018  0.40093  1.0000
  Au  Au2       1.0  0.39925  0.19982  0.59907  1.0000
  Au  Au3       1.0  0.19982  0.60075  0.80057  1.0000
  Au  Au4       1.0  0.80018  0.39925  0.19943  1.0000
