data_image0
_chemical_formula_structural       Cd4Ag4
_chemical_formula_sum              "Cd4 Ag4"
_cell_length_a       5.45054
_cell_length_b       5.45054
_cell_length_c       5.45054
_cell_angle_alpha    90
_cell_angle_beta     90
_cell_angle_gamma    90

_space_group_name_H-M_alt    "P 1"
_space_group_IT_number       1

loop_
  _space_group_symop_operation_xyz
  'x, y, z'

loop_
  _atom_site_type_symbol
  _atom_site_label
  _atom_site_symmetry_multiplicity
  _atom_site_fract_x
  _atom_site_fract_y
  _atom_site_fract_z
  _atom_site_occupancy
  Cd  Cd1       1.0  0.84763  0.65237  0.34763  1.0000
  Cd  Cd2       1.0  0.65237  0.34763  0.84763  1.0000
  Cd  Cd3       1.0  0.34763  0.84763  0.65237  1.0000
  Cd  Cd4       1.0  0.15237  0.15237  0.15237  1.0000
  Ag  Ag1       1.0  0.15001  0.34999  0.65001  1.0000
  Ag  Ag2       1.0  0.34999  0.65001  0.15001  1.0000
  Ag  Ag3       1.0  0.65001  0.15001  0.34999  1.0000
  Ag  Ag4       1.0  0.84999  0.84999  0.84999  1.0000
