data_image0
_chemical_formula_structural       Ag4Cd2
_chemical_formula_sum              "Ag4 Cd2"
_cell_length_a       5.43931
_cell_length_b       5.43931
_cell_length_c       5.43931
_cell_angle_alpha    106.169
_cell_angle_beta     106.169
_cell_angle_gamma    116.299

_space_group_name_H-M_alt    "P 1"
_space_group_IT_number       1

loop_
  _space_group_symop_operation_xyz
  'x, y, z'

loop_
  _atom_site_type_symbol
  _atom_site_label
  _atom_site_symmetry_multiplicity
  _atom_site_fract_x
  _atom_site_fract_y
  _atom_site_fract_z
  _atom_site_occupancy
  Ag  Ag1       1.0  0.34915  0.84915  0.19831  1.0000
  Ag  Ag2       1.0  0.15085  0.34915  0.50000  1.0000
  Ag  Ag3       1.0  0.84915  0.65085  0.50000  1.0000
  Ag  Ag4       1.0  0.65085  0.15085  0.80169  1.0000
  Cd  Cd1       1.0  0.75000  0.75000  0.00000  1.0000
  Cd  Cd2       1.0  0.25000  0.25000  0.00000  1.0000
