data_image0
_chemical_formula_structural       Cd4Au4
_chemical_formula_sum              "Cd4 Au4"
_cell_length_a       5.44273
_cell_length_b       5.44273
_cell_length_c       5.44273
_cell_angle_alpha    90
_cell_angle_beta     90
_cell_angle_gamma    90

_space_group_name_H-M_alt    "P 1"
_space_group_IT_number       1

loop_
  _space_group_symop_operation_xyz
  'x, y, z'

loop_
  _atom_site_type_symbol
  _atom_site_label
  _atom_site_symmetry_multiplicity
  _atom_site_fract_x
  _atom_site_fract_y
  _atom_site_fract_z
  _atom_site_occupancy
  Cd  Cd1       1.0  0.84677  0.65323  0.34677  1.0000
  Cd  Cd2       1.0  0.65323  0.34677  0.84677  1.0000
  Cd  Cd3       1.0  0.34677  0.84677  0.65323  1.0000
  Cd  Cd4       1.0  0.15323  0.15323  0.15323  1.0000
  Au  Au1       1.0  0.15353  0.34647  0.65353  1.0000
  Au  Au2       1.0  0.34647  0.65353  0.15353  1.0000
  Au  Au3       1.0  0.65353  0.15353  0.34647  1.0000
  Au  Au4       1.0  0.84647  0.84647  0.84647  1.0000
