data_image0
_chemical_formula_structural       Cd4Ag18
_chemical_formula_sum              "Cd4 Ag18"
_cell_length_a       7.8466
_cell_length_b       7.8466
_cell_length_c       7.10559
_cell_angle_alpha    85.6524
_cell_angle_beta     85.6524
_cell_angle_gamma    101.887

_space_group_name_H-M_alt    "P 1"
_space_group_IT_number       1

loop_
  _space_group_symop_operation_xyz
  'x, y, z'

loop_
  _atom_site_type_symbol
  _atom_site_label
  _atom_site_symmetry_multiplicity
  _atom_site_fract_x
  _atom_site_fract_y
  _atom_site_fract_z
  _atom_site_occupancy
  Cd  Cd1       1.0  0.38203  0.86457  0.12508  1.0000
  Cd  Cd2       1.0  0.13543  0.61797  0.37492  1.0000
  Cd  Cd3       1.0  0.61797  0.13543  0.87492  1.0000
  Cd  Cd4       1.0  0.86457  0.38203  0.62508  1.0000
  Ag  Ag1       1.0  0.45767  0.79374  0.55841  1.0000
  Ag  Ag2       1.0  0.20626  0.54233  0.94159  1.0000
  Ag  Ag3       1.0  0.82854  0.00678  0.59019  1.0000
  Ag  Ag4       1.0  0.99322  0.17146  0.90981  1.0000
  Ag  Ag5       1.0  0.17146  0.99322  0.40981  1.0000
  Ag  Ag6       1.0  0.00678  0.82854  0.09019  1.0000
  Ag  Ag7       1.0  0.23222  0.32952  0.58062  1.0000
  Ag  Ag8       1.0  0.67048  0.76778  0.91938  1.0000
  Ag  Ag9       1.0  0.76778  0.67048  0.41938  1.0000
  Ag  Ag10      1.0  0.32952  0.23222  0.08062  1.0000
  Ag  Ag11      1.0  0.00642  0.27270  0.27835  1.0000
  Ag  Ag12      1.0  0.72730  0.99358  0.22165  1.0000
  Ag  Ag13      1.0  0.99358  0.72730  0.72165  1.0000
  Ag  Ag14      1.0  0.27270  0.00642  0.77835  1.0000
  Ag  Ag15      1.0  0.79374  0.45767  0.05841  1.0000
  Ag  Ag16      1.0  0.54233  0.20626  0.44159  1.0000
  Ag  Ag17      1.0  0.46810  0.53190  0.25000  1.0000
  Ag  Ag18      1.0  0.53190  0.46810  0.75000  1.0000
