data_image0
_chemical_formula_structural       Cd16Au24
_chemical_formula_sum              "Cd16 Au24"
_cell_length_a       7.97929
_cell_length_b       7.95535
_cell_length_c       13.3966
_cell_angle_alpha    90
_cell_angle_beta     90
_cell_angle_gamma    90

_space_group_name_H-M_alt    "P 1"
_space_group_IT_number       1

loop_
  _space_group_symop_operation_xyz
  'x, y, z'

loop_
  _atom_site_type_symbol
  _atom_site_label
  _atom_site_symmetry_multiplicity
  _atom_site_fract_x
  _atom_site_fract_y
  _atom_site_fract_z
  _atom_site_occupancy
  Cd  Cd1       1.0  0.87417  0.75000  0.00073  1.0000
  Cd  Cd2       1.0  0.37417  0.25000  0.49927  1.0000
  Cd  Cd3       1.0  0.12583  0.25000  0.99927  1.0000
  Cd  Cd4       1.0  0.62583  0.75000  0.50073  1.0000
  Cd  Cd5       1.0  0.37459  0.75000  0.00932  1.0000
  Cd  Cd6       1.0  0.87459  0.25000  0.49068  1.0000
  Cd  Cd7       1.0  0.62541  0.25000  0.99068  1.0000
  Cd  Cd8       1.0  0.12541  0.75000  0.50932  1.0000
  Cd  Cd9       1.0  0.62551  0.44672  0.26495  1.0000
  Cd  Cd10      1.0  0.12551  0.55328  0.23505  1.0000
  Cd  Cd11      1.0  0.37449  0.94672  0.73505  1.0000
  Cd  Cd12      1.0  0.87449  0.05328  0.76495  1.0000
  Cd  Cd13      1.0  0.37449  0.55328  0.73505  1.0000
  Cd  Cd14      1.0  0.87449  0.44672  0.76495  1.0000
  Cd  Cd15      1.0  0.62551  0.05328  0.26495  1.0000
  Cd  Cd16      1.0  0.12551  0.94672  0.23505  1.0000
  Au  Au1       1.0  0.81501  0.75000  0.21060  1.0000
  Au  Au2       1.0  0.31501  0.25000  0.28940  1.0000
  Au  Au3       1.0  0.18499  0.25000  0.78940  1.0000
  Au  Au4       1.0  0.68499  0.75000  0.71060  1.0000
  Au  Au5       1.0  0.43577  0.75000  0.21631  1.0000
  Au  Au6       1.0  0.93577  0.25000  0.28369  1.0000
  Au  Au7       1.0  0.56423  0.25000  0.78369  1.0000
  Au  Au8       1.0  0.06423  0.75000  0.71631  1.0000
  Au  Au9       1.0  0.86902  0.06466  0.09868  1.0000
  Au  Au10      1.0  0.36902  0.93534  0.40132  1.0000
  Au  Au11      1.0  0.13098  0.56466  0.90132  1.0000
  Au  Au12      1.0  0.63098  0.43534  0.59868  1.0000
  Au  Au13      1.0  0.13098  0.93534  0.90132  1.0000
  Au  Au14      1.0  0.63098  0.06466  0.59868  1.0000
  Au  Au15      1.0  0.86902  0.43534  0.09868  1.0000
  Au  Au16      1.0  0.36902  0.56466  0.40132  1.0000
  Au  Au17      1.0  0.38212  0.06700  0.10177  1.0000
  Au  Au18      1.0  0.88212  0.93300  0.39823  1.0000
  Au  Au19      1.0  0.61788  0.56700  0.89823  1.0000
  Au  Au20      1.0  0.11788  0.43300  0.60177  1.0000
  Au  Au21      1.0  0.61788  0.93300  0.89823  1.0000
  Au  Au22      1.0  0.11788  0.06700  0.60177  1.0000
  Au  Au23      1.0  0.38212  0.43300  0.10177  1.0000
  Au  Au24      1.0  0.88212  0.56700  0.39823  1.0000
