data_image0
_chemical_formula_structural       Ag12Cd4
_chemical_formula_sum              "Ag12 Cd4"
_cell_length_a       7.81552
_cell_length_b       7.81552
_cell_length_c       5.88367
_cell_angle_alpha    90
_cell_angle_beta     90
_cell_angle_gamma    90

_space_group_name_H-M_alt    "P 1"
_space_group_IT_number       1

loop_
  _space_group_symop_operation_xyz
  'x, y, z'

loop_
  _atom_site_type_symbol
  _atom_site_label
  _atom_site_symmetry_multiplicity
  _atom_site_fract_x
  _atom_site_fract_y
  _atom_site_fract_z
  _atom_site_occupancy
  Ag  Ag1       1.0  0.50000  0.00000  0.00000  1.0000
  Ag  Ag2       1.0  0.50000  0.00000  0.50000  1.0000
  Ag  Ag3       1.0  0.00000  0.50000  0.00000  1.0000
  Ag  Ag4       1.0  0.00000  0.50000  0.50000  1.0000
  Ag  Ag5       1.0  0.66870  0.33130  0.75315  1.0000
  Ag  Ag6       1.0  0.83130  0.83130  0.74685  1.0000
  Ag  Ag7       1.0  0.16870  0.16870  0.74685  1.0000
  Ag  Ag8       1.0  0.33130  0.66870  0.75315  1.0000
  Ag  Ag9       1.0  0.33130  0.66870  0.24685  1.0000
  Ag  Ag10      1.0  0.66870  0.33130  0.24685  1.0000
  Ag  Ag11      1.0  0.83130  0.83130  0.25315  1.0000
  Ag  Ag12      1.0  0.16870  0.16870  0.25315  1.0000
  Cd  Cd1       1.0  0.86993  0.13007  0.00000  1.0000
  Cd  Cd2       1.0  0.63007  0.63007  0.50000  1.0000
  Cd  Cd3       1.0  0.36993  0.36993  0.50000  1.0000
  Cd  Cd4       1.0  0.13007  0.86993  0.00000  1.0000
