data_image0
_chemical_formula_structural       Cd2Au3
_chemical_formula_sum              "Cd2 Au3"
_cell_length_a       5.62139
_cell_length_b       5.62139
_cell_length_c       5.62139
_cell_angle_alpha    50.1842
_cell_angle_beta     50.1842
_cell_angle_gamma    50.1842

_space_group_name_H-M_alt    "P 1"
_space_group_IT_number       1

loop_
  _space_group_symop_operation_xyz
  'x, y, z'

loop_
  _atom_site_type_symbol
  _atom_site_label
  _atom_site_symmetry_multiplicity
  _atom_site_fract_x
  _atom_site_fract_y
  _atom_site_fract_z
  _atom_site_occupancy
  Cd  Cd1       1.0  0.60282  0.60282  0.60282  1.0000
  Cd  Cd2       1.0  0.39718  0.39718  0.39718  1.0000
  Au  Au1       1.0  0.00000  0.00000  0.00000  1.0000
  Au  Au2       1.0  0.19681  0.19681  0.19681  1.0000
  Au  Au3       1.0  0.80319  0.80319  0.80319  1.0000
