data_image0
_chemical_formula_structural       Cd2Ag6
_chemical_formula_sum              "Cd2 Ag6"
_cell_length_a       4.89569
_cell_length_b       5.17546
_cell_length_c       5.90677
_cell_angle_alpha    90
_cell_angle_beta     90
_cell_angle_gamma    90

_space_group_name_H-M_alt    "P 1"
_space_group_IT_number       1

loop_
  _space_group_symop_operation_xyz
  'x, y, z'

loop_
  _atom_site_type_symbol
  _atom_site_label
  _atom_site_symmetry_multiplicity
  _atom_site_fract_x
  _atom_site_fract_y
  _atom_site_fract_z
  _atom_site_occupancy
  Cd  Cd1       1.0  0.50000  0.66274  0.50000  1.0000
  Cd  Cd2       1.0  0.00000  0.33726  0.00000  1.0000
  Ag  Ag1       1.0  0.50000  0.16272  0.74990  1.0000
  Ag  Ag2       1.0  0.50000  0.16272  0.25010  1.0000
  Ag  Ag3       1.0  0.00000  0.83728  0.75010  1.0000
  Ag  Ag4       1.0  0.00000  0.83728  0.24990  1.0000
  Ag  Ag5       1.0  0.00000  0.33236  0.50000  1.0000
  Ag  Ag6       1.0  0.50000  0.66764  0.00000  1.0000
