data_image0
_chemical_formula_structural       Cd9Ag13
_chemical_formula_sum              "Cd9 Ag13"
_cell_length_a       7.40879
_cell_length_b       7.40879
_cell_length_c       9.94583
_cell_angle_alpha    63.6001
_cell_angle_beta     63.6001
_cell_angle_gamma    76.5316

_space_group_name_H-M_alt    "P 1"
_space_group_IT_number       1

loop_
  _space_group_symop_operation_xyz
  'x, y, z'

loop_
  _atom_site_type_symbol
  _atom_site_label
  _atom_site_symmetry_multiplicity
  _atom_site_fract_x
  _atom_site_fract_y
  _atom_site_fract_z
  _atom_site_occupancy
  Cd  Cd1       1.0  0.27575  0.27575  0.16778  1.0000
  Cd  Cd2       1.0  0.76532  0.17040  0.30246  1.0000
  Cd  Cd3       1.0  0.84027  0.84027  0.11325  1.0000
  Cd  Cd4       1.0  0.15973  0.15973  0.88675  1.0000
  Cd  Cd5       1.0  0.50000  0.50000  0.50000  1.0000
  Cd  Cd6       1.0  0.72425  0.72425  0.83222  1.0000
  Cd  Cd7       1.0  0.17040  0.76532  0.30246  1.0000
  Cd  Cd8       1.0  0.82960  0.23468  0.69754  1.0000
  Cd  Cd9       1.0  0.23468  0.82960  0.69754  1.0000
  Ag  Ag1       1.0  0.53853  0.06420  0.65544  1.0000
  Ag  Ag2       1.0  0.06420  0.53853  0.65544  1.0000
  Ag  Ag3       1.0  0.54884  0.54884  0.17959  1.0000
  Ag  Ag4       1.0  0.73743  0.73743  0.52084  1.0000
  Ag  Ag5       1.0  0.46147  0.93580  0.34456  1.0000
  Ag  Ag6       1.0  0.72520  0.27480  0.00000  1.0000
  Ag  Ag7       1.0  0.26257  0.26257  0.47916  1.0000
  Ag  Ag8       1.0  0.45116  0.45116  0.82041  1.0000
  Ag  Ag9       1.0  0.27480  0.72520  0.00000  1.0000
  Ag  Ag10      1.0  0.00000  0.00000  0.50000  1.0000
  Ag  Ag11      1.0  0.93580  0.46147  0.34456  1.0000
  Ag  Ag12      1.0  0.00000  0.50000  0.00000  1.0000
  Ag  Ag13      1.0  0.50000  0.00000  0.00000  1.0000
