data_image0
_chemical_formula_structural       Cd3Au4
_chemical_formula_sum              "Cd3 Au4"
_cell_length_a       6.97338
_cell_length_b       6.97338
_cell_length_c       8.0769
_cell_angle_alpha    57.6632
_cell_angle_beta     57.6632
_cell_angle_gamma    26.3533

_space_group_name_H-M_alt    "P 1"
_space_group_IT_number       1

loop_
  _space_group_symop_operation_xyz
  'x, y, z'

loop_
  _atom_site_type_symbol
  _atom_site_label
  _atom_site_symmetry_multiplicity
  _atom_site_fract_x
  _atom_site_fract_y
  _atom_site_fract_z
  _atom_site_occupancy
  Cd  Cd1       1.0  0.00000  0.00000  0.00000  1.0000
  Cd  Cd2       1.0  0.25966  0.25966  0.67130  1.0000
  Cd  Cd3       1.0  0.74034  0.74034  0.32870  1.0000
  Au  Au1       1.0  0.04838  0.04838  0.61582  1.0000
  Au  Au2       1.0  0.95162  0.95162  0.38418  1.0000
  Au  Au3       1.0  0.64863  0.64863  0.06707  1.0000
  Au  Au4       1.0  0.35137  0.35137  0.93293  1.0000
