data_image0
_chemical_formula_structural       Cd12Ag28
_chemical_formula_sum              "Cd12 Ag28"
_cell_length_a       7.34363
_cell_length_b       9.96456
_cell_length_c       11.2063
_cell_angle_alpha    107.452
_cell_angle_beta     98.429
_cell_angle_gamma    89.4405

_space_group_name_H-M_alt    "P 1"
_space_group_IT_number       1

loop_
  _space_group_symop_operation_xyz
  'x, y, z'

loop_
  _atom_site_type_symbol
  _atom_site_label
  _atom_site_symmetry_multiplicity
  _atom_site_fract_x
  _atom_site_fract_y
  _atom_site_fract_z
  _atom_site_occupancy
  Cd  Cd1       1.0  0.20554  0.47685  0.94620  1.0000
  Cd  Cd2       1.0  0.79446  0.52315  0.05380  1.0000
  Cd  Cd3       1.0  0.37849  0.99581  0.62216  1.0000
  Cd  Cd4       1.0  0.62151  0.00419  0.37784  1.0000
  Cd  Cd5       1.0  0.07873  0.72057  0.51581  1.0000
  Cd  Cd6       1.0  0.92127  0.27943  0.48419  1.0000
  Cd  Cd7       1.0  0.85693  0.73905  0.81116  1.0000
  Cd  Cd8       1.0  0.14307  0.26095  0.18884  1.0000
  Cd  Cd9       1.0  0.69738  0.17055  0.10600  1.0000
  Cd  Cd10      1.0  0.30262  0.82945  0.89400  1.0000
  Cd  Cd11      1.0  0.48829  0.37507  0.62312  1.0000
  Cd  Cd12      1.0  0.51171  0.62493  0.37688  1.0000
  Ag  Ag1       1.0  0.00000  0.00000  0.00000  1.0000
  Ag  Ag2       1.0  0.00000  0.00000  0.50000  1.0000
  Ag  Ag3       1.0  0.68403  0.85854  0.04813  1.0000
  Ag  Ag4       1.0  0.31597  0.14146  0.95187  1.0000
  Ag  Ag5       1.0  0.15539  0.54750  0.70080  1.0000
  Ag  Ag6       1.0  0.84461  0.45250  0.29920  1.0000
  Ag  Ag7       1.0  0.85022  0.43864  0.77947  1.0000
  Ag  Ag8       1.0  0.14978  0.56136  0.22053  1.0000
  Ag  Ag9       1.0  0.54549  0.29968  0.86224  1.0000
  Ag  Ag10      1.0  0.45451  0.70032  0.13776  1.0000
  Ag  Ag11      1.0  0.72193  0.84429  0.57091  1.0000
  Ag  Ag12      1.0  0.27807  0.15571  0.42909  1.0000
  Ag  Ag13      1.0  0.63941  0.99426  0.83709  1.0000
  Ag  Ag14      1.0  0.36059  0.00574  0.16291  1.0000
  Ag  Ag15      1.0  0.74078  0.14689  0.65911  1.0000
  Ag  Ag16      1.0  0.25922  0.85311  0.34089  1.0000
  Ag  Ag17      1.0  0.45217  0.70303  0.65299  1.0000
  Ag  Ag18      1.0  0.54783  0.29697  0.34701  1.0000
  Ag  Ag19      1.0  0.16345  0.24601  0.71273  1.0000
  Ag  Ag20      1.0  0.83655  0.75399  0.28727  1.0000
  Ag  Ag21      1.0  0.95308  0.02669  0.25281  1.0000
  Ag  Ag22      1.0  0.04692  0.97331  0.74719  1.0000
  Ag  Ag23      1.0  0.22677  0.45277  0.43966  1.0000
  Ag  Ag24      1.0  0.77323  0.54723  0.56034  1.0000
  Ag  Ag25      1.0  0.52632  0.59275  0.86827  1.0000
  Ag  Ag26      1.0  0.47368  0.40725  0.13173  1.0000
  Ag  Ag27      1.0  0.93688  0.24533  0.92439  1.0000
  Ag  Ag28      1.0  0.06312  0.75467  0.07561  1.0000
