data_image0
_chemical_formula_structural       Cd2Br6
_chemical_formula_sum              "Cd2 Br6"
_cell_length_a       6.06755
_cell_length_b       4.21667
_cell_length_c       9.58207
_cell_angle_alpha    90
_cell_angle_beta     90
_cell_angle_gamma    90

_space_group_name_H-M_alt    "P 1"
_space_group_IT_number       1

loop_
  _space_group_symop_operation_xyz
  'x, y, z'

loop_
  _atom_site_type_symbol
  _atom_site_label
  _atom_site_symmetry_multiplicity
  _atom_site_fract_x
  _atom_site_fract_y
  _atom_site_fract_z
  _atom_site_occupancy
  Cd  Cd1       1.0  0.50000  0.75046  0.50000  1.0000
  Cd  Cd2       1.0  0.00000  0.24954  0.00000  1.0000
  Br  Br1       1.0  0.50000  0.25064  0.68517  1.0000
  Br  Br2       1.0  0.50000  0.25064  0.31483  1.0000
  Br  Br3       1.0  0.00000  0.74936  0.81483  1.0000
  Br  Br4       1.0  0.00000  0.74936  0.18517  1.0000
  Br  Br5       1.0  0.00000  0.73720  0.50000  1.0000
  Br  Br6       1.0  0.50000  0.26280  0.00000  1.0000
