data_image0
_chemical_formula_structural       Cd4Br4
_chemical_formula_sum              "Cd4 Br4"
_cell_length_a       6.84542
_cell_length_b       6.84542
_cell_length_c       6.84542
_cell_angle_alpha    90
_cell_angle_beta     90
_cell_angle_gamma    90

_space_group_name_H-M_alt    "P 1"
_space_group_IT_number       1

loop_
  _space_group_symop_operation_xyz
  'x, y, z'

loop_
  _atom_site_type_symbol
  _atom_site_label
  _atom_site_symmetry_multiplicity
  _atom_site_fract_x
  _atom_site_fract_y
  _atom_site_fract_z
  _atom_site_occupancy
  Cd  Cd1       1.0  0.99768  0.50232  0.49768  1.0000
  Cd  Cd2       1.0  0.50232  0.49768  0.99768  1.0000
  Cd  Cd3       1.0  0.49768  0.99768  0.50232  1.0000
  Cd  Cd4       1.0  0.00232  0.00232  0.00232  1.0000
  Br  Br1       1.0  0.24597  0.25403  0.74597  1.0000
  Br  Br2       1.0  0.25403  0.74597  0.24597  1.0000
  Br  Br3       1.0  0.74597  0.24597  0.25403  1.0000
  Br  Br4       1.0  0.75403  0.75403  0.75403  1.0000
