data_image0
_chemical_formula_structural       Cd6Br8
_chemical_formula_sum              "Cd6 Br8"
_cell_length_a       8.90895
_cell_length_b       8.90895
_cell_length_c       8.90895
_cell_angle_alpha    60
_cell_angle_beta     60
_cell_angle_gamma    60

_space_group_name_H-M_alt    "P 1"
_space_group_IT_number       1

loop_
  _space_group_symop_operation_xyz
  'x, y, z'

loop_
  _atom_site_type_symbol
  _atom_site_label
  _atom_site_symmetry_multiplicity
  _atom_site_fract_x
  _atom_site_fract_y
  _atom_site_fract_z
  _atom_site_occupancy
  Cd  Cd1       1.0  0.50000  0.50000  0.50000  1.0000
  Cd  Cd2       1.0  0.12500  0.12500  0.62500  1.0000
  Cd  Cd3       1.0  0.12500  0.12500  0.12500  1.0000
  Cd  Cd4       1.0  0.12500  0.62500  0.12500  1.0000
  Cd  Cd5       1.0  0.75000  0.75000  0.75000  1.0000
  Cd  Cd6       1.0  0.62500  0.12500  0.12500  1.0000
  Br  Br1       1.0  0.89388  0.89388  0.89388  1.0000
  Br  Br2       1.0  0.89388  0.89388  0.31837  1.0000
  Br  Br3       1.0  0.35612  0.35612  0.35612  1.0000
  Br  Br4       1.0  0.35612  0.35612  0.93163  1.0000
  Br  Br5       1.0  0.89388  0.31837  0.89388  1.0000
  Br  Br6       1.0  0.35612  0.93163  0.35612  1.0000
  Br  Br7       1.0  0.93163  0.35612  0.35612  1.0000
  Br  Br8       1.0  0.31837  0.89388  0.89388  1.0000
