data_image0
_chemical_formula_structural       Au2Cd6
_chemical_formula_sum              "Au2 Cd6"
_cell_length_a       9.25676
_cell_length_b       9.25676
_cell_length_c       9.25676
_cell_angle_alpha    152.662
_cell_angle_beta     152.662
_cell_angle_gamma    39.0472

_space_group_name_H-M_alt    "P 1"
_space_group_IT_number       1

loop_
  _space_group_symop_operation_xyz
  'x, y, z'

loop_
  _atom_site_type_symbol
  _atom_site_label
  _atom_site_symmetry_multiplicity
  _atom_site_fract_x
  _atom_site_fract_y
  _atom_site_fract_z
  _atom_site_occupancy
  Au  Au1       1.0  0.87389  0.87389  0.00000  1.0000
  Au  Au2       1.0  0.12611  0.12611  0.00000  1.0000
  Cd  Cd1       1.0  0.00000  0.50000  0.50000  1.0000
  Cd  Cd2       1.0  0.50000  0.00000  0.50000  1.0000
  Cd  Cd3       1.0  0.75000  0.25000  0.50000  1.0000
  Cd  Cd4       1.0  0.25000  0.75000  0.50000  1.0000
  Cd  Cd5       1.0  0.62422  0.62422  0.00000  1.0000
  Cd  Cd6       1.0  0.37578  0.37578  0.00000  1.0000
