data_image0
_chemical_formula_structural       Cd2Au6
_chemical_formula_sum              "Cd2 Au6"
_cell_length_a       4.91589
_cell_length_b       5.17007
_cell_length_c       5.88956
_cell_angle_alpha    90
_cell_angle_beta     90
_cell_angle_gamma    90

_space_group_name_H-M_alt    "P 1"
_space_group_IT_number       1

loop_
  _space_group_symop_operation_xyz
  'x, y, z'

loop_
  _atom_site_type_symbol
  _atom_site_label
  _atom_site_symmetry_multiplicity
  _atom_site_fract_x
  _atom_site_fract_y
  _atom_site_fract_z
  _atom_site_occupancy
  Cd  Cd1       1.0  0.50000  0.66470  0.50000  1.0000
  Cd  Cd2       1.0  0.00000  0.33530  0.00000  1.0000
  Au  Au1       1.0  0.50000  0.16739  0.75051  1.0000
  Au  Au2       1.0  0.50000  0.16739  0.24949  1.0000
  Au  Au3       1.0  0.00000  0.83261  0.74949  1.0000
  Au  Au4       1.0  0.00000  0.83261  0.25051  1.0000
  Au  Au5       1.0  0.00000  0.32993  0.50000  1.0000
  Au  Au6       1.0  0.50000  0.67007  0.00000  1.0000
