data_image0
_chemical_formula_structural       CdBr4
_chemical_formula_sum              "Cd1 Br4"
_cell_length_a       6.79716
_cell_length_b       6.79716
_cell_length_c       6.79716
_cell_angle_alpha    94.5249
_cell_angle_beta     94.5249
_cell_angle_gamma    147.375

_space_group_name_H-M_alt    "P 1"
_space_group_IT_number       1

loop_
  _space_group_symop_operation_xyz
  'x, y, z'

loop_
  _atom_site_type_symbol
  _atom_site_label
  _atom_site_symmetry_multiplicity
  _atom_site_fract_x
  _atom_site_fract_y
  _atom_site_fract_z
  _atom_site_occupancy
  Cd  Cd1       1.0  0.00000  0.00000  0.00000  1.0000
  Br  Br1       1.0  0.57260  0.73489  0.30749  1.0000
  Br  Br2       1.0  0.42740  0.26511  0.69251  1.0000
  Br  Br3       1.0  0.26511  0.57260  0.83771  1.0000
  Br  Br4       1.0  0.73489  0.42740  0.16229  1.0000
