data_image0
_chemical_formula_structural       Br4Cd4
_chemical_formula_sum              "Br4 Cd4"
_cell_length_a       3.79183
_cell_length_b       10.8175
_cell_length_c       5.84985
_cell_angle_alpha    90
_cell_angle_beta     90
_cell_angle_gamma    90

_space_group_name_H-M_alt    "P 1"
_space_group_IT_number       1

loop_
  _space_group_symop_operation_xyz
  'x, y, z'

loop_
  _atom_site_type_symbol
  _atom_site_label
  _atom_site_symmetry_multiplicity
  _atom_site_fract_x
  _atom_site_fract_y
  _atom_site_fract_z
  _atom_site_occupancy
  Br  Br1       1.0  0.75000  0.84210  0.53317  1.0000
  Br  Br2       1.0  0.25000  0.15790  0.46683  1.0000
  Br  Br3       1.0  0.75000  0.34210  0.96683  1.0000
  Br  Br4       1.0  0.25000  0.65790  0.03317  1.0000
  Cd  Cd1       1.0  0.75000  0.03039  0.18431  1.0000
  Cd  Cd2       1.0  0.25000  0.96961  0.81569  1.0000
  Cd  Cd3       1.0  0.75000  0.53039  0.31569  1.0000
  Cd  Cd4       1.0  0.25000  0.46961  0.68431  1.0000
