data_image0
_chemical_formula_structural       Cd3Br4
_chemical_formula_sum              "Cd3 Br4"
_cell_length_a       10.569
_cell_length_b       10.569
_cell_length_c       7.10692
_cell_angle_alpha    71.2813
_cell_angle_beta     71.2813
_cell_angle_gamma    22.1837

_space_group_name_H-M_alt    "P 1"
_space_group_IT_number       1

loop_
  _space_group_symop_operation_xyz
  'x, y, z'

loop_
  _atom_site_type_symbol
  _atom_site_label
  _atom_site_symmetry_multiplicity
  _atom_site_fract_x
  _atom_site_fract_y
  _atom_site_fract_z
  _atom_site_occupancy
  Cd  Cd1       1.0  0.24939  0.24939  0.75034  1.0000
  Cd  Cd2       1.0  0.75061  0.75061  0.24966  1.0000
  Cd  Cd3       1.0  0.50000  0.50000  0.50000  1.0000
  Br  Br1       1.0  0.82979  0.82979  0.50791  1.0000
  Br  Br2       1.0  0.17021  0.17021  0.49209  1.0000
  Br  Br3       1.0  0.33002  0.33002  0.00665  1.0000
  Br  Br4       1.0  0.66998  0.66998  0.99335  1.0000
