data_image0
_chemical_formula_structural       Cd8C16
_chemical_formula_sum              "Cd8 C16"
_cell_length_a       6.79126
_cell_length_b       8.76115
_cell_length_c       6.74215
_cell_angle_alpha    90
_cell_angle_beta     90
_cell_angle_gamma    90

_space_group_name_H-M_alt    "P 1"
_space_group_IT_number       1

loop_
  _space_group_symop_operation_xyz
  'x, y, z'

loop_
  _atom_site_type_symbol
  _atom_site_label
  _atom_site_symmetry_multiplicity
  _atom_site_fract_x
  _atom_site_fract_y
  _atom_site_fract_z
  _atom_site_occupancy
  Cd  Cd1       1.0  0.49953  0.86197  0.12839  1.0000
  Cd  Cd2       1.0  0.00047  0.63803  0.62839  1.0000
  Cd  Cd3       1.0  0.00047  0.36197  0.87161  1.0000
  Cd  Cd4       1.0  0.49953  0.13803  0.37161  1.0000
  Cd  Cd5       1.0  0.50047  0.13803  0.87161  1.0000
  Cd  Cd6       1.0  0.99953  0.36197  0.37161  1.0000
  Cd  Cd7       1.0  0.99953  0.63803  0.12839  1.0000
  Cd  Cd8       1.0  0.50047  0.86197  0.62839  1.0000
  C   C1        1.0  0.49715  0.50000  0.25000  1.0000
  C   C2        1.0  0.00285  0.00000  0.75000  1.0000
  C   C3        1.0  0.50285  0.50000  0.75000  1.0000
  C   C4        1.0  0.99715  0.00000  0.25000  1.0000
  C   C5        1.0  0.49683  0.62608  0.37497  1.0000
  C   C6        1.0  0.00317  0.87392  0.87497  1.0000
  C   C7        1.0  0.00317  0.12608  0.62503  1.0000
  C   C8        1.0  0.49683  0.37392  0.12503  1.0000
  C   C9        1.0  0.50317  0.37392  0.62503  1.0000
  C   C10       1.0  0.99683  0.12608  0.12503  1.0000
  C   C11       1.0  0.99683  0.87392  0.37497  1.0000
  C   C12       1.0  0.50317  0.62608  0.87497  1.0000
  C   C13       1.0  0.50000  0.50000  0.00000  1.0000
  C   C14       1.0  0.00000  0.00000  0.50000  1.0000
  C   C15       1.0  0.00000  0.00000  0.00000  1.0000
  C   C16       1.0  0.50000  0.50000  0.50000  1.0000
