data_image0
_chemical_formula_structural       C6Cd2
_chemical_formula_sum              "C6 Cd2"
_cell_length_a       5.77797
_cell_length_b       3.33445
_cell_length_c       5.83514
_cell_angle_alpha    90
_cell_angle_beta     90
_cell_angle_gamma    90

_space_group_name_H-M_alt    "P 1"
_space_group_IT_number       1

loop_
  _space_group_symop_operation_xyz
  'x, y, z'

loop_
  _atom_site_type_symbol
  _atom_site_label
  _atom_site_symmetry_multiplicity
  _atom_site_fract_x
  _atom_site_fract_y
  _atom_site_fract_z
  _atom_site_occupancy
  C   C1        1.0  0.00000  0.47578  0.27622  1.0000
  C   C2        1.0  0.00000  0.47578  0.72378  1.0000
  C   C3        1.0  0.50000  0.52422  0.22378  1.0000
  C   C4        1.0  0.50000  0.52422  0.77622  1.0000
  C   C5        1.0  0.00000  0.47555  0.50000  1.0000
  C   C6        1.0  0.50000  0.52445  0.00000  1.0000
  Cd  Cd1       1.0  0.00000  0.97610  0.00000  1.0000
  Cd  Cd2       1.0  0.50000  0.02390  0.50000  1.0000
