data_image0
_chemical_formula_structural       Cd6Au16
_chemical_formula_sum              "Cd6 Au16"
_cell_length_a       5.30887
_cell_length_b       5.3916
_cell_length_c       15.3314
_cell_angle_alpha    79.5857
_cell_angle_beta     90
_cell_angle_gamma    90

_space_group_name_H-M_alt    "P 1"
_space_group_IT_number       1

loop_
  _space_group_symop_operation_xyz
  'x, y, z'

loop_
  _atom_site_type_symbol
  _atom_site_label
  _atom_site_symmetry_multiplicity
  _atom_site_fract_x
  _atom_site_fract_y
  _atom_site_fract_z
  _atom_site_occupancy
  Cd  Cd1       1.0  0.67963  0.84234  0.78342  1.0000
  Cd  Cd2       1.0  0.32037  0.15766  0.21658  1.0000
  Cd  Cd3       1.0  0.50000  0.00000  0.00000  1.0000
  Cd  Cd4       1.0  0.17963  0.15766  0.71658  1.0000
  Cd  Cd5       1.0  0.82037  0.84234  0.28342  1.0000
  Cd  Cd6       1.0  0.00000  0.00000  0.50000  1.0000
  Au  Au1       1.0  0.44924  0.68596  0.17118  1.0000
  Au  Au2       1.0  0.68591  0.31557  0.64646  1.0000
  Au  Au3       1.0  0.74564  0.55557  0.96482  1.0000
  Au  Au4       1.0  0.46959  0.14284  0.40781  1.0000
  Au  Au5       1.0  0.03041  0.14284  0.90781  1.0000
  Au  Au6       1.0  0.81409  0.31557  0.14646  1.0000
  Au  Au7       1.0  0.75436  0.55557  0.46482  1.0000
  Au  Au8       1.0  0.05076  0.68596  0.67118  1.0000
  Au  Au9       1.0  0.18591  0.68443  0.85354  1.0000
  Au  Au10      1.0  0.96959  0.85716  0.09219  1.0000
  Au  Au11      1.0  0.24564  0.44443  0.53518  1.0000
  Au  Au12      1.0  0.94924  0.31404  0.32882  1.0000
  Au  Au13      1.0  0.25436  0.44443  0.03518  1.0000
  Au  Au14      1.0  0.55076  0.31404  0.82882  1.0000
  Au  Au15      1.0  0.31409  0.68443  0.35354  1.0000
  Au  Au16      1.0  0.53041  0.85716  0.59219  1.0000
