data_image0
_chemical_formula_structural       Cd8Br8
_chemical_formula_sum              "Cd8 Br8"
_cell_length_a       9.57466
_cell_length_b       9.57466
_cell_length_c       7.8115
_cell_angle_alpha    90
_cell_angle_beta     90
_cell_angle_gamma    90

_space_group_name_H-M_alt    "P 1"
_space_group_IT_number       1

loop_
  _space_group_symop_operation_xyz
  'x, y, z'

loop_
  _atom_site_type_symbol
  _atom_site_label
  _atom_site_symmetry_multiplicity
  _atom_site_fract_x
  _atom_site_fract_y
  _atom_site_fract_z
  _atom_site_occupancy
  Cd  Cd1       1.0  0.62118  0.56641  0.00000  1.0000
  Cd  Cd2       1.0  0.43359  0.62118  0.50000  1.0000
  Cd  Cd3       1.0  0.56641  0.37882  0.50000  1.0000
  Cd  Cd4       1.0  0.37882  0.43359  0.00000  1.0000
  Cd  Cd5       1.0  0.50000  0.00000  0.50000  1.0000
  Cd  Cd6       1.0  0.00000  0.50000  0.00000  1.0000
  Cd  Cd7       1.0  0.00000  0.00000  0.75000  1.0000
  Cd  Cd8       1.0  0.00000  0.00000  0.25000  1.0000
  Br  Br1       1.0  0.17738  0.40486  0.75784  1.0000
  Br  Br2       1.0  0.59514  0.17738  0.25784  1.0000
  Br  Br3       1.0  0.40486  0.82262  0.25784  1.0000
  Br  Br4       1.0  0.82262  0.59514  0.75784  1.0000
  Br  Br5       1.0  0.82262  0.59514  0.24216  1.0000
  Br  Br6       1.0  0.40486  0.82262  0.74216  1.0000
  Br  Br7       1.0  0.59514  0.17738  0.74216  1.0000
  Br  Br8       1.0  0.17738  0.40486  0.24216  1.0000
