data_image0
_chemical_formula_structural       Au8Cd4
_chemical_formula_sum              "Au8 Cd4"
_cell_length_a       9.90256
_cell_length_b       3.04851
_cell_length_c       7.71911
_cell_angle_alpha    80.0969
_cell_angle_beta     90
_cell_angle_gamma    90

_space_group_name_H-M_alt    "P 1"
_space_group_IT_number       1

loop_
  _space_group_symop_operation_xyz
  'x, y, z'

loop_
  _atom_site_type_symbol
  _atom_site_label
  _atom_site_symmetry_multiplicity
  _atom_site_fract_x
  _atom_site_fract_y
  _atom_site_fract_z
  _atom_site_occupancy
  Au  Au1       1.0  0.37353  0.46472  0.37653  1.0000
  Au  Au2       1.0  0.62647  0.46472  0.87653  1.0000
  Au  Au3       1.0  0.37221  0.78363  0.71109  1.0000
  Au  Au4       1.0  0.87319  0.24216  0.31714  1.0000
  Au  Au5       1.0  0.62779  0.78363  0.21109  1.0000
  Au  Au6       1.0  0.12681  0.24216  0.81714  1.0000
  Au  Au7       1.0  0.87343  0.56497  0.65072  1.0000
  Au  Au8       1.0  0.12657  0.56497  0.15072  1.0000
  Cd  Cd1       1.0  0.37417  0.12032  0.04482  1.0000
  Cd  Cd2       1.0  0.62583  0.12032  0.54482  1.0000
  Cd  Cd3       1.0  0.87347  0.90750  0.98300  1.0000
  Cd  Cd4       1.0  0.12653  0.90750  0.48300  1.0000
