data_image0
_chemical_formula_structural       Cd8Br12
_chemical_formula_sum              "Cd8 Br12"
_cell_length_a       4.11495
_cell_length_b       10.5274
_cell_length_c       15.0457
_cell_angle_alpha    90
_cell_angle_beta     90
_cell_angle_gamma    90

_space_group_name_H-M_alt    "P 1"
_space_group_IT_number       1

loop_
  _space_group_symop_operation_xyz
  'x, y, z'

loop_
  _atom_site_type_symbol
  _atom_site_label
  _atom_site_symmetry_multiplicity
  _atom_site_fract_x
  _atom_site_fract_y
  _atom_site_fract_z
  _atom_site_occupancy
  Cd  Cd1       1.0  0.25000  0.01238  0.84885  1.0000
  Cd  Cd2       1.0  0.75000  0.98762  0.15115  1.0000
  Cd  Cd3       1.0  0.75000  0.51238  0.65115  1.0000
  Cd  Cd4       1.0  0.25000  0.48762  0.34885  1.0000
  Cd  Cd5       1.0  0.25000  0.16898  0.52636  1.0000
  Cd  Cd6       1.0  0.75000  0.83102  0.47364  1.0000
  Cd  Cd7       1.0  0.75000  0.66898  0.97364  1.0000
  Cd  Cd8       1.0  0.25000  0.33102  0.02636  1.0000
  Br  Br1       1.0  0.25000  0.32489  0.67880  1.0000
  Br  Br2       1.0  0.75000  0.67511  0.32120  1.0000
  Br  Br3       1.0  0.75000  0.82489  0.82120  1.0000
  Br  Br4       1.0  0.25000  0.17511  0.17880  1.0000
  Br  Br5       1.0  0.25000  0.97723  0.39222  1.0000
  Br  Br6       1.0  0.75000  0.02277  0.60778  1.0000
  Br  Br7       1.0  0.75000  0.47723  0.10778  1.0000
  Br  Br8       1.0  0.25000  0.52277  0.89222  1.0000
  Br  Br9       1.0  0.25000  0.81706  0.05995  1.0000
  Br  Br10      1.0  0.75000  0.18294  0.94005  1.0000
  Br  Br11      1.0  0.75000  0.31706  0.44005  1.0000
  Br  Br12      1.0  0.25000  0.68294  0.55995  1.0000
