data_image0
_chemical_formula_structural       Cd9Au13
_chemical_formula_sum              "Cd9 Au13"
_cell_length_a       7.36992
_cell_length_b       7.36992
_cell_length_c       10.154
_cell_angle_alpha    63.1092
_cell_angle_beta     63.1092
_cell_angle_gamma    76.4759

_space_group_name_H-M_alt    "P 1"
_space_group_IT_number       1

loop_
  _space_group_symop_operation_xyz
  'x, y, z'

loop_
  _atom_site_type_symbol
  _atom_site_label
  _atom_site_symmetry_multiplicity
  _atom_site_fract_x
  _atom_site_fract_y
  _atom_site_fract_z
  _atom_site_occupancy
  Cd  Cd1       1.0  0.28050  0.28050  0.16685  1.0000
  Cd  Cd2       1.0  0.76722  0.17574  0.30109  1.0000
  Cd  Cd3       1.0  0.82465  0.82465  0.12657  1.0000
  Cd  Cd4       1.0  0.17535  0.17535  0.87343  1.0000
  Cd  Cd5       1.0  0.50000  0.50000  0.50000  1.0000
  Cd  Cd6       1.0  0.71950  0.71950  0.83315  1.0000
  Cd  Cd7       1.0  0.17574  0.76722  0.30109  1.0000
  Cd  Cd8       1.0  0.82426  0.23278  0.69891  1.0000
  Cd  Cd9       1.0  0.23278  0.82426  0.69891  1.0000
  Au  Au1       1.0  0.54259  0.06157  0.64743  1.0000
  Au  Au2       1.0  0.06157  0.54259  0.64743  1.0000
  Au  Au3       1.0  0.54213  0.54213  0.17714  1.0000
  Au  Au4       1.0  0.73765  0.73765  0.51636  1.0000
  Au  Au5       1.0  0.45741  0.93843  0.35257  1.0000
  Au  Au6       1.0  0.74236  0.25764  0.00000  1.0000
  Au  Au7       1.0  0.26235  0.26235  0.48364  1.0000
  Au  Au8       1.0  0.45787  0.45787  0.82286  1.0000
  Au  Au9       1.0  0.25764  0.74236  0.00000  1.0000
  Au  Au10      1.0  0.00000  0.00000  0.50000  1.0000
  Au  Au11      1.0  0.93843  0.45741  0.35257  1.0000
  Au  Au12      1.0  0.00000  0.50000  0.00000  1.0000
  Au  Au13      1.0  0.50000  0.00000  0.00000  1.0000
