data_image0
_chemical_formula_structural       Cd12C16
_chemical_formula_sum              "Cd12 C16"
_cell_length_a       7.1532
_cell_length_b       7.1532
_cell_length_c       11.9307
_cell_angle_alpha    90
_cell_angle_beta     90
_cell_angle_gamma    120

_space_group_name_H-M_alt    "P 1"
_space_group_IT_number       1

loop_
  _space_group_symop_operation_xyz
  'x, y, z'

loop_
  _atom_site_type_symbol
  _atom_site_label
  _atom_site_symmetry_multiplicity
  _atom_site_fract_x
  _atom_site_fract_y
  _atom_site_fract_z
  _atom_site_occupancy
  Cd  Cd1       1.0  0.83907  0.16507  0.03299  1.0000
  Cd  Cd2       1.0  0.32600  0.16093  0.03299  1.0000
  Cd  Cd3       1.0  0.83493  0.67400  0.03299  1.0000
  Cd  Cd4       1.0  0.16093  0.32600  0.53299  1.0000
  Cd  Cd5       1.0  0.67400  0.83493  0.53299  1.0000
  Cd  Cd6       1.0  0.16507  0.83907  0.53299  1.0000
  Cd  Cd7       1.0  0.15813  0.31629  0.79676  1.0000
  Cd  Cd8       1.0  0.15816  0.84187  0.79676  1.0000
  Cd  Cd9       1.0  0.68371  0.84184  0.79676  1.0000
  Cd  Cd10      1.0  0.84187  0.15816  0.29676  1.0000
  Cd  Cd11      1.0  0.84184  0.68371  0.29676  1.0000
  Cd  Cd12      1.0  0.31629  0.15813  0.29676  1.0000
  C   C1        1.0  0.33349  0.86272  0.28205  1.0000
  C   C2        1.0  0.52923  0.66651  0.28205  1.0000
  C   C3        1.0  0.13728  0.47077  0.28205  1.0000
  C   C4        1.0  0.66651  0.52923  0.78205  1.0000
  C   C5        1.0  0.47077  0.13728  0.78205  1.0000
  C   C6        1.0  0.86272  0.33349  0.78205  1.0000
  C   C7        1.0  0.66683  0.13726  0.78195  1.0000
  C   C8        1.0  0.47043  0.33317  0.78195  1.0000
  C   C9        1.0  0.86274  0.52957  0.78195  1.0000
  C   C10       1.0  0.33317  0.47043  0.28195  1.0000
  C   C11       1.0  0.52957  0.86274  0.28195  1.0000
  C   C12       1.0  0.13726  0.66683  0.28195  1.0000
  C   C13       1.0  0.00000  0.00000  0.96369  1.0000
  C   C14       1.0  0.00000  0.00000  0.46369  1.0000
  C   C15       1.0  0.33333  0.66667  0.56946  1.0000
  C   C16       1.0  0.66667  0.33333  0.06946  1.0000
