data_image0
_chemical_formula_structural       Au10Cd6
_chemical_formula_sum              "Au10 Cd6"
_cell_length_a       7.7253
_cell_length_b       7.7253
_cell_length_c       7.7253
_cell_angle_alpha    121.916
_cell_angle_beta     121.916
_cell_angle_gamma    86.7118

_space_group_name_H-M_alt    "P 1"
_space_group_IT_number       1

loop_
  _space_group_symop_operation_xyz
  'x, y, z'

loop_
  _atom_site_type_symbol
  _atom_site_label
  _atom_site_symmetry_multiplicity
  _atom_site_fract_x
  _atom_site_fract_y
  _atom_site_fract_z
  _atom_site_occupancy
  Au  Au1       1.0  0.47946  0.68455  0.50000  1.0000
  Au  Au2       1.0  0.52054  0.31545  0.50000  1.0000
  Au  Au3       1.0  0.50000  0.50000  0.00000  1.0000
  Au  Au4       1.0  0.00000  0.00000  0.00000  1.0000
  Au  Au5       1.0  0.18455  0.97946  0.50000  1.0000
  Au  Au6       1.0  0.97946  0.47946  0.79491  1.0000
  Au  Au7       1.0  0.68455  0.18455  0.20509  1.0000
  Au  Au8       1.0  0.31545  0.81545  0.79491  1.0000
  Au  Au9       1.0  0.02054  0.52054  0.20509  1.0000
  Au  Au10      1.0  0.81545  0.02054  0.50000  1.0000
  Cd  Cd1       1.0  0.84975  0.65025  0.50000  1.0000
  Cd  Cd2       1.0  0.65025  0.15025  0.80049  1.0000
  Cd  Cd3       1.0  0.34975  0.84975  0.19951  1.0000
  Cd  Cd4       1.0  0.15025  0.34975  0.50000  1.0000
  Cd  Cd5       1.0  0.25000  0.25000  0.00000  1.0000
  Cd  Cd6       1.0  0.75000  0.75000  0.00000  1.0000
