data_image0
_chemical_formula_structural       Cd2C4
_chemical_formula_sum              "Cd2 C4"
_cell_length_a       3.50658
_cell_length_b       4.65954
_cell_length_c       5.23195
_cell_angle_alpha    90
_cell_angle_beta     90
_cell_angle_gamma    90

_space_group_name_H-M_alt    "P 1"
_space_group_IT_number       1

loop_
  _space_group_symop_operation_xyz
  'x, y, z'

loop_
  _atom_site_type_symbol
  _atom_site_label
  _atom_site_symmetry_multiplicity
  _atom_site_fract_x
  _atom_site_fract_y
  _atom_site_fract_z
  _atom_site_occupancy
  Cd  Cd1       1.0  0.50000  0.50000  0.50000  1.0000
  Cd  Cd2       1.0  0.00000  0.00000  0.00000  1.0000
  C   C1        1.0  0.50000  0.36452  0.00100  1.0000
  C   C2        1.0  0.50000  0.63548  0.99900  1.0000
  C   C3        1.0  0.00000  0.13548  0.50100  1.0000
  C   C4        1.0  0.00000  0.86452  0.49900  1.0000
