data_image0
_chemical_formula_structural       Cd4Au12
_chemical_formula_sum              "Cd4 Au12"
_cell_length_a       9.03311
_cell_length_b       9.03311
_cell_length_c       5.87567
_cell_angle_alpha    90
_cell_angle_beta     90
_cell_angle_gamma    141.34

_space_group_name_H-M_alt    "P 1"
_space_group_IT_number       1

loop_
  _space_group_symop_operation_xyz
  'x, y, z'

loop_
  _atom_site_type_symbol
  _atom_site_label
  _atom_site_symmetry_multiplicity
  _atom_site_fract_x
  _atom_site_fract_y
  _atom_site_fract_z
  _atom_site_occupancy
  Cd  Cd1       1.0  0.62685  0.37315  0.00000  1.0000
  Cd  Cd2       1.0  0.37315  0.62685  0.00000  1.0000
  Cd  Cd3       1.0  0.12685  0.87315  0.50000  1.0000
  Cd  Cd4       1.0  0.87315  0.12685  0.50000  1.0000
  Au  Au1       1.0  0.75235  0.75235  0.25201  1.0000
  Au  Au2       1.0  0.25235  0.25235  0.24799  1.0000
  Au  Au3       1.0  0.74765  0.74765  0.75201  1.0000
  Au  Au4       1.0  0.37702  0.62298  0.50000  1.0000
  Au  Au5       1.0  0.00079  0.50079  0.75000  1.0000
  Au  Au6       1.0  0.87702  0.12298  0.00000  1.0000
  Au  Au7       1.0  0.99921  0.49921  0.25000  1.0000
  Au  Au8       1.0  0.24765  0.24765  0.74799  1.0000
  Au  Au9       1.0  0.62298  0.37702  0.50000  1.0000
  Au  Au10      1.0  0.12298  0.87702  0.00000  1.0000
  Au  Au11      1.0  0.49921  0.99921  0.25000  1.0000
  Au  Au12      1.0  0.50079  0.00079  0.75000  1.0000
