data_image0
_chemical_formula_structural       Cd8Au8
_chemical_formula_sum              "Cd8 Au8"
_cell_length_a       6.20517
_cell_length_b       6.20517
_cell_length_c       10.0598
_cell_angle_alpha    90
_cell_angle_beta     90
_cell_angle_gamma    90

_space_group_name_H-M_alt    "P 1"
_space_group_IT_number       1

loop_
  _space_group_symop_operation_xyz
  'x, y, z'

loop_
  _atom_site_type_symbol
  _atom_site_label
  _atom_site_symmetry_multiplicity
  _atom_site_fract_x
  _atom_site_fract_y
  _atom_site_fract_z
  _atom_site_occupancy
  Cd  Cd1       1.0  0.57560  0.76211  0.00000  1.0000
  Cd  Cd2       1.0  0.23789  0.57560  0.50000  1.0000
  Cd  Cd3       1.0  0.76211  0.42440  0.50000  1.0000
  Cd  Cd4       1.0  0.42440  0.23789  0.00000  1.0000
  Cd  Cd5       1.0  0.50000  0.00000  0.50000  1.0000
  Cd  Cd6       1.0  0.00000  0.50000  0.00000  1.0000
  Cd  Cd7       1.0  0.00000  0.00000  0.75000  1.0000
  Cd  Cd8       1.0  0.00000  0.00000  0.25000  1.0000
  Au  Au1       1.0  0.20113  0.39914  0.75987  1.0000
  Au  Au2       1.0  0.60086  0.20113  0.25987  1.0000
  Au  Au3       1.0  0.39914  0.79887  0.25987  1.0000
  Au  Au4       1.0  0.79887  0.60086  0.75987  1.0000
  Au  Au5       1.0  0.79887  0.60086  0.24013  1.0000
  Au  Au6       1.0  0.39914  0.79887  0.74013  1.0000
  Au  Au7       1.0  0.60086  0.20113  0.74013  1.0000
  Au  Au8       1.0  0.20113  0.39914  0.24013  1.0000
