data_image0
_chemical_formula_structural       Cd10Br6
_chemical_formula_sum              "Cd10 Br6"
_cell_length_a       8.84261
_cell_length_b       8.84261
_cell_length_c       8.84261
_cell_angle_alpha    98.6245
_cell_angle_beta     98.6245
_cell_angle_gamma    134.434

_space_group_name_H-M_alt    "P 1"
_space_group_IT_number       1

loop_
  _space_group_symop_operation_xyz
  'x, y, z'

loop_
  _atom_site_type_symbol
  _atom_site_label
  _atom_site_symmetry_multiplicity
  _atom_site_fract_x
  _atom_site_fract_y
  _atom_site_fract_z
  _atom_site_occupancy
  Cd  Cd1       1.0  0.50294  0.23457  0.73751  1.0000
  Cd  Cd2       1.0  0.49706  0.76543  0.26249  1.0000
  Cd  Cd3       1.0  0.76543  0.50294  0.26837  1.0000
  Cd  Cd4       1.0  0.23457  0.49706  0.73163  1.0000
  Cd  Cd5       1.0  0.99706  0.73457  0.73163  1.0000
  Cd  Cd6       1.0  0.26543  0.99706  0.26249  1.0000
  Cd  Cd7       1.0  0.25000  0.75000  0.50000  1.0000
  Cd  Cd8       1.0  0.75000  0.25000  0.50000  1.0000
  Cd  Cd9       1.0  0.00294  0.26543  0.26837  1.0000
  Cd  Cd10      1.0  0.73457  0.00294  0.73751  1.0000
  Br  Br1       1.0  0.75263  0.25263  0.00526  1.0000
  Br  Br2       1.0  0.74737  0.75263  0.50000  1.0000
  Br  Br3       1.0  0.25263  0.24737  0.50000  1.0000
  Br  Br4       1.0  0.24737  0.74737  0.99474  1.0000
  Br  Br5       1.0  0.75000  0.75000  0.00000  1.0000
  Br  Br6       1.0  0.25000  0.25000  0.00000  1.0000
