data_image0
_chemical_formula_structural       Cd12Au28
_chemical_formula_sum              "Cd12 Au28"
_cell_length_a       7.37546
_cell_length_b       9.9152
_cell_length_c       11.1849
_cell_angle_alpha    107.265
_cell_angle_beta     97.6222
_cell_angle_gamma    90.0969

_space_group_name_H-M_alt    "P 1"
_space_group_IT_number       1

loop_
  _space_group_symop_operation_xyz
  'x, y, z'

loop_
  _atom_site_type_symbol
  _atom_site_label
  _atom_site_symmetry_multiplicity
  _atom_site_fract_x
  _atom_site_fract_y
  _atom_site_fract_z
  _atom_site_occupancy
  Cd  Cd1       1.0  0.20602  0.47587  0.94536  1.0000
  Cd  Cd2       1.0  0.79398  0.52413  0.05464  1.0000
  Cd  Cd3       1.0  0.37936  0.99445  0.62283  1.0000
  Cd  Cd4       1.0  0.62064  0.00555  0.37717  1.0000
  Cd  Cd5       1.0  0.07553  0.71867  0.51493  1.0000
  Cd  Cd6       1.0  0.92447  0.28133  0.48507  1.0000
  Cd  Cd7       1.0  0.85800  0.73798  0.81284  1.0000
  Cd  Cd8       1.0  0.14200  0.26202  0.18716  1.0000
  Cd  Cd9       1.0  0.69089  0.17008  0.10800  1.0000
  Cd  Cd10      1.0  0.30911  0.82992  0.89200  1.0000
  Cd  Cd11      1.0  0.48396  0.37318  0.62150  1.0000
  Cd  Cd12      1.0  0.51604  0.62682  0.37850  1.0000
  Au  Au1       1.0  0.00000  0.00000  0.00000  1.0000
  Au  Au2       1.0  0.00000  0.00000  0.50000  1.0000
  Au  Au3       1.0  0.68525  0.85644  0.04697  1.0000
  Au  Au4       1.0  0.31475  0.14356  0.95303  1.0000
  Au  Au5       1.0  0.15728  0.54902  0.70279  1.0000
  Au  Au6       1.0  0.84272  0.45098  0.29721  1.0000
  Au  Au7       1.0  0.85348  0.43453  0.77660  1.0000
  Au  Au8       1.0  0.14652  0.56547  0.22340  1.0000
  Au  Au9       1.0  0.54558  0.29775  0.85945  1.0000
  Au  Au10      1.0  0.45442  0.70225  0.14055  1.0000
  Au  Au11      1.0  0.72424  0.84427  0.57976  1.0000
  Au  Au12      1.0  0.27576  0.15573  0.42024  1.0000
  Au  Au13      1.0  0.63197  0.99400  0.84039  1.0000
  Au  Au14      1.0  0.36803  0.00600  0.15961  1.0000
  Au  Au15      1.0  0.73111  0.14575  0.65179  1.0000
  Au  Au16      1.0  0.26889  0.85425  0.34821  1.0000
  Au  Au17      1.0  0.44530  0.70080  0.64889  1.0000
  Au  Au18      1.0  0.55470  0.29920  0.35111  1.0000
  Au  Au19      1.0  0.17162  0.24620  0.71040  1.0000
  Au  Au20      1.0  0.82838  0.75380  0.28960  1.0000
  Au  Au21      1.0  0.94262  0.02991  0.25282  1.0000
  Au  Au22      1.0  0.05738  0.97009  0.74718  1.0000
  Au  Au23      1.0  0.22661  0.45270  0.43715  1.0000
  Au  Au24      1.0  0.77339  0.54730  0.56285  1.0000
  Au  Au25      1.0  0.52927  0.59226  0.86918  1.0000
  Au  Au26      1.0  0.47073  0.40774  0.13082  1.0000
  Au  Au27      1.0  0.93369  0.24902  0.92904  1.0000
  Au  Au28      1.0  0.06631  0.75098  0.07096  1.0000
