data_image0
_chemical_formula_structural       Cd6Br20
_chemical_formula_sum              "Cd6 Br20"
_cell_length_a       17.1703
_cell_length_b       17.1703
_cell_length_c       3.82683
_cell_angle_alpha    90
_cell_angle_beta     90
_cell_angle_gamma    120

_space_group_name_H-M_alt    "P 1"
_space_group_IT_number       1

loop_
  _space_group_symop_operation_xyz
  'x, y, z'

loop_
  _atom_site_type_symbol
  _atom_site_label
  _atom_site_symmetry_multiplicity
  _atom_site_fract_x
  _atom_site_fract_y
  _atom_site_fract_z
  _atom_site_occupancy
  Cd  Cd1       1.0  0.64549  0.72354  0.25000  1.0000
  Cd  Cd2       1.0  0.27646  0.92195  0.25000  1.0000
  Cd  Cd3       1.0  0.07805  0.35451  0.25000  1.0000
  Cd  Cd4       1.0  0.35451  0.27646  0.75000  1.0000
  Cd  Cd5       1.0  0.72354  0.07805  0.75000  1.0000
  Cd  Cd6       1.0  0.92195  0.64549  0.75000  1.0000
  Br  Br1       1.0  0.85656  0.14470  0.25000  1.0000
  Br  Br2       1.0  0.85530  0.71186  0.25000  1.0000
  Br  Br3       1.0  0.28814  0.14344  0.25000  1.0000
  Br  Br4       1.0  0.14344  0.85530  0.75000  1.0000
  Br  Br5       1.0  0.14470  0.28814  0.75000  1.0000
  Br  Br6       1.0  0.71186  0.85656  0.75000  1.0000
  Br  Br7       1.0  0.60146  0.99856  0.25000  1.0000
  Br  Br8       1.0  0.00144  0.60290  0.25000  1.0000
  Br  Br9       1.0  0.39710  0.39854  0.25000  1.0000
  Br  Br10      1.0  0.39854  0.00144  0.75000  1.0000
  Br  Br11      1.0  0.99856  0.39710  0.75000  1.0000
  Br  Br12      1.0  0.60290  0.60146  0.75000  1.0000
  Br  Br13      1.0  0.74898  0.26049  0.25000  1.0000
  Br  Br14      1.0  0.73951  0.48849  0.25000  1.0000
  Br  Br15      1.0  0.51151  0.25102  0.25000  1.0000
  Br  Br16      1.0  0.25102  0.73951  0.75000  1.0000
  Br  Br17      1.0  0.26049  0.51151  0.75000  1.0000
  Br  Br18      1.0  0.48849  0.74898  0.75000  1.0000
  Br  Br19      1.0  0.66667  0.33333  0.75000  1.0000
  Br  Br20      1.0  0.33333  0.66667  0.25000  1.0000
