data_image0
_chemical_formula_structural       Cd4Br8
_chemical_formula_sum              "Cd4 Br8"
_cell_length_a       5.75834
_cell_length_b       6.74069
_cell_length_c       10.8958
_cell_angle_alpha    90
_cell_angle_beta     90
_cell_angle_gamma    90

_space_group_name_H-M_alt    "P 1"
_space_group_IT_number       1

loop_
  _space_group_symop_operation_xyz
  'x, y, z'

loop_
  _atom_site_type_symbol
  _atom_site_label
  _atom_site_symmetry_multiplicity
  _atom_site_fract_x
  _atom_site_fract_y
  _atom_site_fract_z
  _atom_site_occupancy
  Cd  Cd1       1.0  0.75000  0.89620  0.12481  1.0000
  Cd  Cd2       1.0  0.25000  0.10380  0.87519  1.0000
  Cd  Cd3       1.0  0.75000  0.39620  0.37519  1.0000
  Cd  Cd4       1.0  0.25000  0.60380  0.62481  1.0000
  Br  Br1       1.0  0.75000  0.51165  0.60800  1.0000
  Br  Br2       1.0  0.25000  0.48835  0.39200  1.0000
  Br  Br3       1.0  0.75000  0.01165  0.89200  1.0000
  Br  Br4       1.0  0.25000  0.98835  0.10800  1.0000
  Br  Br5       1.0  0.75000  0.50104  0.14081  1.0000
  Br  Br6       1.0  0.25000  0.49896  0.85919  1.0000
  Br  Br7       1.0  0.75000  0.00104  0.35919  1.0000
  Br  Br8       1.0  0.25000  0.99896  0.64081  1.0000
