data_image0
_chemical_formula_structural       Br6Cd2
_chemical_formula_sum              "Br6 Cd2"
_cell_length_a       3.99944
_cell_length_b       10.5302
_cell_length_c       5.86603
_cell_angle_alpha    90
_cell_angle_beta     90
_cell_angle_gamma    90

_space_group_name_H-M_alt    "P 1"
_space_group_IT_number       1

loop_
  _space_group_symop_operation_xyz
  'x, y, z'

loop_
  _atom_site_type_symbol
  _atom_site_label
  _atom_site_symmetry_multiplicity
  _atom_site_fract_x
  _atom_site_fract_y
  _atom_site_fract_z
  _atom_site_occupancy
  Br  Br1       1.0  0.00000  0.31496  0.24770  1.0000
  Br  Br2       1.0  0.00000  0.31496  0.75230  1.0000
  Br  Br3       1.0  0.50000  0.68504  0.25230  1.0000
  Br  Br4       1.0  0.50000  0.68504  0.74770  1.0000
  Br  Br5       1.0  0.00000  0.98040  0.50000  1.0000
  Br  Br6       1.0  0.50000  0.01960  0.00000  1.0000
  Cd  Cd1       1.0  0.00000  0.83951  0.00000  1.0000
  Cd  Cd2       1.0  0.50000  0.16049  0.50000  1.0000
