data_image0
_chemical_formula_structural       Cd2Cl3
_chemical_formula_sum              "Cd2 Cl3"
_cell_length_a       10.0371
_cell_length_b       10.0371
_cell_length_c       10.0371
_cell_angle_alpha    23.5066
_cell_angle_beta     23.5066
_cell_angle_gamma    23.5066

_space_group_name_H-M_alt    "P 1"
_space_group_IT_number       1

loop_
  _space_group_symop_operation_xyz
  'x, y, z'

loop_
  _atom_site_type_symbol
  _atom_site_label
  _atom_site_symmetry_multiplicity
  _atom_site_fract_x
  _atom_site_fract_y
  _atom_site_fract_z
  _atom_site_occupancy
  Cd  Cd1       1.0  0.60441  0.60441  0.60441  1.0000
  Cd  Cd2       1.0  0.39559  0.39559  0.39559  1.0000
  Cl  Cl1       1.0  0.00000  0.00000  0.00000  1.0000
  Cl  Cl2       1.0  0.22632  0.22632  0.22632  1.0000
  Cl  Cl3       1.0  0.77368  0.77368  0.77368  1.0000
