data_image0
_chemical_formula_structural       Cd8Cl16
_chemical_formula_sum              "Cd8 Cl16"
_cell_length_a       9.18602
_cell_length_b       6.62357
_cell_length_c       11.7092
_cell_angle_alpha    90
_cell_angle_beta     90
_cell_angle_gamma    90

_space_group_name_H-M_alt    "P 1"
_space_group_IT_number       1

loop_
  _space_group_symop_operation_xyz
  'x, y, z'

loop_
  _atom_site_type_symbol
  _atom_site_label
  _atom_site_symmetry_multiplicity
  _atom_site_fract_x
  _atom_site_fract_y
  _atom_site_fract_z
  _atom_site_occupancy
  Cd  Cd1       1.0  0.63270  0.81003  0.07888  1.0000
  Cd  Cd2       1.0  0.86730  0.68997  0.57888  1.0000
  Cd  Cd3       1.0  0.86730  0.31003  0.92112  1.0000
  Cd  Cd4       1.0  0.63270  0.18997  0.42112  1.0000
  Cd  Cd5       1.0  0.36730  0.18997  0.92112  1.0000
  Cd  Cd6       1.0  0.13270  0.31003  0.42112  1.0000
  Cd  Cd7       1.0  0.13270  0.68997  0.07888  1.0000
  Cd  Cd8       1.0  0.36730  0.81003  0.57888  1.0000
  Cl  Cl1       1.0  0.23022  0.50000  0.25000  1.0000
  Cl  Cl2       1.0  0.26978  0.00000  0.75000  1.0000
  Cl  Cl3       1.0  0.76978  0.50000  0.75000  1.0000
  Cl  Cl4       1.0  0.73022  0.00000  0.25000  1.0000
  Cl  Cl5       1.0  0.35325  0.04329  0.40247  1.0000
  Cl  Cl6       1.0  0.14675  0.45671  0.90247  1.0000
  Cl  Cl7       1.0  0.14675  0.54329  0.59753  1.0000
  Cl  Cl8       1.0  0.35325  0.95671  0.09753  1.0000
  Cl  Cl9       1.0  0.64675  0.95671  0.59753  1.0000
  Cl  Cl10      1.0  0.85325  0.54329  0.09753  1.0000
  Cl  Cl11      1.0  0.85325  0.45671  0.40247  1.0000
  Cl  Cl12      1.0  0.64675  0.04329  0.90247  1.0000
  Cl  Cl13      1.0  0.50000  0.50000  0.00000  1.0000
  Cl  Cl14      1.0  0.00000  0.00000  0.50000  1.0000
  Cl  Cl15      1.0  0.00000  0.00000  0.00000  1.0000
  Cl  Cl16      1.0  0.50000  0.50000  0.50000  1.0000
