data_image0
_chemical_formula_structural       Cd3C4
_chemical_formula_sum              "Cd3 C4"
_cell_length_a       7.61736
_cell_length_b       7.61736
_cell_length_c       6.93431
_cell_angle_alpha    66.4584
_cell_angle_beta     66.4584
_cell_angle_gamma    20.2007

_space_group_name_H-M_alt    "P 1"
_space_group_IT_number       1

loop_
  _space_group_symop_operation_xyz
  'x, y, z'

loop_
  _atom_site_type_symbol
  _atom_site_label
  _atom_site_symmetry_multiplicity
  _atom_site_fract_x
  _atom_site_fract_y
  _atom_site_fract_z
  _atom_site_occupancy
  Cd  Cd1       1.0  0.00000  0.00000  0.00000  1.0000
  Cd  Cd2       1.0  0.38885  0.38885  0.62951  1.0000
  Cd  Cd3       1.0  0.61115  0.61115  0.37049  1.0000
  C   C1        1.0  0.02784  0.02784  0.66956  1.0000
  C   C2        1.0  0.97216  0.97216  0.33044  1.0000
  C   C3        1.0  0.73642  0.73642  0.03677  1.0000
  C   C4        1.0  0.26358  0.26358  0.96323  1.0000
