data_image0
_chemical_formula_structural       C8Cd4
_chemical_formula_sum              "C8 Cd4"
_cell_length_a       4.1128
_cell_length_b       7.85196
_cell_length_c       6.1943
_cell_angle_alpha    80.5433
_cell_angle_beta     90
_cell_angle_gamma    90

_space_group_name_H-M_alt    "P 1"
_space_group_IT_number       1

loop_
  _space_group_symop_operation_xyz
  'x, y, z'

loop_
  _atom_site_type_symbol
  _atom_site_label
  _atom_site_symmetry_multiplicity
  _atom_site_fract_x
  _atom_site_fract_y
  _atom_site_fract_z
  _atom_site_occupancy
  C   C1        1.0  0.99982  0.92903  0.45216  1.0000
  C   C2        1.0  0.49982  0.07097  0.04784  1.0000
  C   C3        1.0  0.00018  0.07097  0.54784  1.0000
  C   C4        1.0  0.50018  0.92903  0.95216  1.0000
  C   C5        1.0  0.00110  0.20628  0.63135  1.0000
  C   C6        1.0  0.50110  0.79372  0.86865  1.0000
  C   C7        1.0  0.99890  0.79372  0.36865  1.0000
  C   C8        1.0  0.49890  0.20628  0.13135  1.0000
  Cd  Cd1       1.0  0.00039  0.34955  0.91515  1.0000
  Cd  Cd2       1.0  0.50039  0.65045  0.58485  1.0000
  Cd  Cd3       1.0  0.99961  0.65045  0.08485  1.0000
  Cd  Cd4       1.0  0.49961  0.34955  0.41515  1.0000
