data_image0
_chemical_formula_structural       CdC4
_chemical_formula_sum              "Cd1 C4"
_cell_length_a       12.7898
_cell_length_b       12.7898
_cell_length_c       12.7898
_cell_angle_alpha    11.3941
_cell_angle_beta     11.3941
_cell_angle_gamma    11.3941

_space_group_name_H-M_alt    "P 1"
_space_group_IT_number       1

loop_
  _space_group_symop_operation_xyz
  'x, y, z'

loop_
  _atom_site_type_symbol
  _atom_site_label
  _atom_site_symmetry_multiplicity
  _atom_site_fract_x
  _atom_site_fract_y
  _atom_site_fract_z
  _atom_site_occupancy
  Cd  Cd1       1.0  0.00000  0.00000  0.00000  1.0000
  C   C1        1.0  0.55338  0.55338  0.55338  1.0000
  C   C2        1.0  0.22001  0.22001  0.22001  1.0000
  C   C3        1.0  0.77999  0.77999  0.77999  1.0000
  C   C4        1.0  0.44662  0.44662  0.44662  1.0000
