data_image0
_chemical_formula_structural       Cd9C5
_chemical_formula_sum              "Cd9 C5"
_cell_length_a       7.08675
_cell_length_b       7.08675
_cell_length_c       9.12454
_cell_angle_alpha    49.7953
_cell_angle_beta     49.7953
_cell_angle_gamma    48.5802

_space_group_name_H-M_alt    "P 1"
_space_group_IT_number       1

loop_
  _space_group_symop_operation_xyz
  'x, y, z'

loop_
  _atom_site_type_symbol
  _atom_site_label
  _atom_site_symmetry_multiplicity
  _atom_site_fract_x
  _atom_site_fract_y
  _atom_site_fract_z
  _atom_site_occupancy
  Cd  Cd1       1.0  0.43653  0.02881  0.36377  1.0000
  Cd  Cd2       1.0  0.97119  0.56347  0.63623  1.0000
  Cd  Cd3       1.0  0.24273  0.96029  0.16366  1.0000
  Cd  Cd4       1.0  0.00672  0.62799  0.25824  1.0000
  Cd  Cd5       1.0  0.37201  0.99328  0.74176  1.0000
  Cd  Cd6       1.0  0.67836  0.32164  0.50000  1.0000
  Cd  Cd7       1.0  0.03971  0.75727  0.83634  1.0000
  Cd  Cd8       1.0  0.72477  0.41608  0.11339  1.0000
  Cd  Cd9       1.0  0.58392  0.27523  0.88661  1.0000
  C   C1        1.0  0.01384  0.20800  0.59745  1.0000
  C   C2        1.0  0.42305  0.57695  0.00000  1.0000
  C   C3        1.0  0.79200  0.98616  0.40255  1.0000
  C   C4        1.0  0.24185  0.34468  0.81718  1.0000
  C   C5        1.0  0.65532  0.75815  0.18282  1.0000
