data_image0
_chemical_formula_structural       Cd2C4
_chemical_formula_sum              "Cd2 C4"
_cell_length_a       4.11351
_cell_length_b       4.11351
_cell_length_c       11.1273
_cell_angle_alpha    90
_cell_angle_beta     90
_cell_angle_gamma    120

_space_group_name_H-M_alt    "P 1"
_space_group_IT_number       1

loop_
  _space_group_symop_operation_xyz
  'x, y, z'

loop_
  _atom_site_type_symbol
  _atom_site_label
  _atom_site_symmetry_multiplicity
  _atom_site_fract_x
  _atom_site_fract_y
  _atom_site_fract_z
  _atom_site_occupancy
  Cd  Cd1       1.0  0.66667  0.33333  0.13732  1.0000
  Cd  Cd2       1.0  0.33333  0.66667  0.86268  1.0000
  C   C1        1.0  0.33333  0.66667  0.20370  1.0000
  C   C2        1.0  0.66667  0.33333  0.91128  1.0000
  C   C3        1.0  0.33333  0.66667  0.08872  1.0000
  C   C4        1.0  0.66667  0.33333  0.79630  1.0000
