data_image0
_chemical_formula_structural       Cd4Cl6
_chemical_formula_sum              "Cd4 Cl6"
_cell_length_a       7.69003
_cell_length_b       7.69003
_cell_length_c       7.69003
_cell_angle_alpha    101.962
_cell_angle_beta     130.86
_cell_angle_gamma    97.9625

_space_group_name_H-M_alt    "P 1"
_space_group_IT_number       1

loop_
  _space_group_symop_operation_xyz
  'x, y, z'

loop_
  _atom_site_type_symbol
  _atom_site_label
  _atom_site_symmetry_multiplicity
  _atom_site_fract_x
  _atom_site_fract_y
  _atom_site_fract_z
  _atom_site_occupancy
  Cd  Cd1       1.0  0.73349  0.42457  0.30892  1.0000
  Cd  Cd2       1.0  0.26651  0.57543  0.69108  1.0000
  Cd  Cd3       1.0  0.88435  0.07543  0.80892  1.0000
  Cd  Cd4       1.0  0.11565  0.92457  0.19108  1.0000
  Cl  Cl1       1.0  0.39820  0.83446  0.56374  1.0000
  Cl  Cl2       1.0  0.60180  0.16554  0.43626  1.0000
  Cl  Cl3       1.0  0.27072  0.33446  0.93626  1.0000
  Cl  Cl4       1.0  0.72928  0.66554  0.06374  1.0000
  Cl  Cl5       1.0  0.00000  0.75000  0.75000  1.0000
  Cl  Cl6       1.0  0.00000  0.25000  0.25000  1.0000
