data_image0
_chemical_formula_structural       Cd2C6
_chemical_formula_sum              "Cd2 C6"
_cell_length_a       5.10973
_cell_length_b       5.10973
_cell_length_c       5.10973
_cell_angle_alpha    123.468
_cell_angle_beta     123.468
_cell_angle_gamma    84.0906

_space_group_name_H-M_alt    "P 1"
_space_group_IT_number       1

loop_
  _space_group_symop_operation_xyz
  'x, y, z'

loop_
  _atom_site_type_symbol
  _atom_site_label
  _atom_site_symmetry_multiplicity
  _atom_site_fract_x
  _atom_site_fract_y
  _atom_site_fract_z
  _atom_site_occupancy
  Cd  Cd1       1.0  0.75000  0.25000  0.50000  1.0000
  Cd  Cd2       1.0  0.25000  0.75000  0.50000  1.0000
  C   C1        1.0  0.75000  0.75000  0.00000  1.0000
  C   C2        1.0  0.25000  0.25000  0.00000  1.0000
  C   C3        1.0  0.24926  0.74926  0.99851  1.0000
  C   C4        1.0  0.75074  0.25074  0.00149  1.0000
  C   C5        1.0  0.74926  0.75074  0.50000  1.0000
  C   C6        1.0  0.25074  0.24926  0.50000  1.0000
