data_image0
_chemical_formula_structural       C12Cd8
_chemical_formula_sum              "C12 Cd8"
_cell_length_a       5.34427
_cell_length_b       9.67751
_cell_length_c       8.0078
_cell_angle_alpha    90
_cell_angle_beta     90
_cell_angle_gamma    90

_space_group_name_H-M_alt    "P 1"
_space_group_IT_number       1

loop_
  _space_group_symop_operation_xyz
  'x, y, z'

loop_
  _atom_site_type_symbol
  _atom_site_label
  _atom_site_symmetry_multiplicity
  _atom_site_fract_x
  _atom_site_fract_y
  _atom_site_fract_z
  _atom_site_occupancy
  C   C1        1.0  0.25000  0.77251  0.26168  1.0000
  C   C2        1.0  0.75000  0.22749  0.73832  1.0000
  C   C3        1.0  0.38190  0.33918  0.36674  1.0000
  C   C4        1.0  0.88190  0.66082  0.63326  1.0000
  C   C5        1.0  0.61810  0.16082  0.86674  1.0000
  C   C6        1.0  0.88190  0.16082  0.86674  1.0000
  C   C7        1.0  0.61810  0.66082  0.63326  1.0000
  C   C8        1.0  0.11810  0.33918  0.36674  1.0000
  C   C9        1.0  0.38190  0.83918  0.13326  1.0000
  C   C10       1.0  0.25000  0.27251  0.23832  1.0000
  C   C11       1.0  0.11810  0.83918  0.13326  1.0000
  C   C12       1.0  0.75000  0.72749  0.76168  1.0000
  Cd  Cd1       1.0  0.25000  0.66327  0.50729  1.0000
  Cd  Cd2       1.0  0.25000  0.98412  0.59921  1.0000
  Cd  Cd3       1.0  0.75000  0.01588  0.40079  1.0000
  Cd  Cd4       1.0  0.75000  0.51588  0.09921  1.0000
  Cd  Cd5       1.0  0.25000  0.48412  0.90079  1.0000
  Cd  Cd6       1.0  0.25000  0.16327  0.99271  1.0000
  Cd  Cd7       1.0  0.75000  0.33673  0.49271  1.0000
  Cd  Cd8       1.0  0.75000  0.83673  0.00729  1.0000
