data_image0
_chemical_formula_structural       Cd4C8
_chemical_formula_sum              "Cd4 C8"
_cell_length_a       8.1598
_cell_length_b       8.1598
_cell_length_c       8.1598
_cell_angle_alpha    60
_cell_angle_beta     60
_cell_angle_gamma    60

_space_group_name_H-M_alt    "P 1"
_space_group_IT_number       1

loop_
  _space_group_symop_operation_xyz
  'x, y, z'

loop_
  _atom_site_type_symbol
  _atom_site_label
  _atom_site_symmetry_multiplicity
  _atom_site_fract_x
  _atom_site_fract_y
  _atom_site_fract_z
  _atom_site_occupancy
  Cd  Cd1       1.0  0.62500  0.62500  0.62500  1.0000
  Cd  Cd2       1.0  0.12500  0.62500  0.62500  1.0000
  Cd  Cd3       1.0  0.62500  0.12500  0.62500  1.0000
  Cd  Cd4       1.0  0.62500  0.62500  0.12500  1.0000
  C   C1        1.0  0.80100  0.59700  0.80100  1.0000
  C   C2        1.0  0.44900  0.44900  0.65300  1.0000
  C   C3        1.0  0.65300  0.44900  0.44900  1.0000
  C   C4        1.0  0.44900  0.44900  0.44900  1.0000
  C   C5        1.0  0.59700  0.80100  0.80100  1.0000
  C   C6        1.0  0.80100  0.80100  0.80100  1.0000
  C   C7        1.0  0.80100  0.80100  0.59700  1.0000
  C   C8        1.0  0.44900  0.65300  0.44900  1.0000
