data_image0
_chemical_formula_structural       Cd2C4
_chemical_formula_sum              "Cd2 C4"
_cell_length_a       4.79746
_cell_length_b       4.79746
_cell_length_c       4.79746
_cell_angle_alpha    114.852
_cell_angle_beta     114.852
_cell_angle_gamma    99.1756

_space_group_name_H-M_alt    "P 1"
_space_group_IT_number       1

loop_
  _space_group_symop_operation_xyz
  'x, y, z'

loop_
  _atom_site_type_symbol
  _atom_site_label
  _atom_site_symmetry_multiplicity
  _atom_site_fract_x
  _atom_site_fract_y
  _atom_site_fract_z
  _atom_site_occupancy
  Cd  Cd1       1.0  0.75000  0.75000  0.00000  1.0000
  Cd  Cd2       1.0  0.25000  0.25000  0.00000  1.0000
  C   C1        1.0  0.58716  0.08716  0.67432  1.0000
  C   C2        1.0  0.08716  0.41284  0.50000  1.0000
  C   C3        1.0  0.91284  0.58716  0.50000  1.0000
  C   C4        1.0  0.41284  0.91284  0.32568  1.0000
