data_image0
_chemical_formula_structural       Cd3Cl4
_chemical_formula_sum              "Cd3 Cl4"
_cell_length_a       9.42933
_cell_length_b       9.42933
_cell_length_c       9.71944
_cell_angle_alpha    41.5449
_cell_angle_beta     41.5449
_cell_angle_gamma    23.454

_space_group_name_H-M_alt    "P 1"
_space_group_IT_number       1

loop_
  _space_group_symop_operation_xyz
  'x, y, z'

loop_
  _atom_site_type_symbol
  _atom_site_label
  _atom_site_symmetry_multiplicity
  _atom_site_fract_x
  _atom_site_fract_y
  _atom_site_fract_z
  _atom_site_occupancy
  Cd  Cd1       1.0  0.00000  0.00000  0.00000  1.0000
  Cd  Cd2       1.0  0.23920  0.23920  0.83988  1.0000
  Cd  Cd3       1.0  0.76080  0.76080  0.16012  1.0000
  Cl  Cl1       1.0  0.19214  0.19214  0.41114  1.0000
  Cl  Cl2       1.0  0.80786  0.80786  0.58886  1.0000
  Cl  Cl3       1.0  0.62245  0.62245  0.14679  1.0000
  Cl  Cl4       1.0  0.37755  0.37755  0.85321  1.0000
