data_image0
_chemical_formula_structural       Cd9C6
_chemical_formula_sum              "Cd9 C6"
_cell_length_a       8.69883
_cell_length_b       8.69883
_cell_length_c       8.95278
_cell_angle_alpha    84.6463
_cell_angle_beta     84.6463
_cell_angle_gamma    21.9512

_space_group_name_H-M_alt    "P 1"
_space_group_IT_number       1

loop_
  _space_group_symop_operation_xyz
  'x, y, z'

loop_
  _atom_site_type_symbol
  _atom_site_label
  _atom_site_symmetry_multiplicity
  _atom_site_fract_x
  _atom_site_fract_y
  _atom_site_fract_z
  _atom_site_occupancy
  Cd  Cd1       1.0  0.83353  0.83353  0.33328  1.0000
  Cd  Cd2       1.0  0.16647  0.16647  0.66672  1.0000
  Cd  Cd3       1.0  0.17054  0.17054  0.99871  1.0000
  Cd  Cd4       1.0  0.82946  0.82946  0.00129  1.0000
  Cd  Cd5       1.0  0.16308  0.16308  0.33487  1.0000
  Cd  Cd6       1.0  0.83692  0.83692  0.66513  1.0000
  Cd  Cd7       1.0  0.50381  0.50381  0.33175  1.0000
  Cd  Cd8       1.0  0.49619  0.49619  0.66825  1.0000
  Cd  Cd9       1.0  0.50000  0.50000  0.00000  1.0000
  C   C1        1.0  0.38721  0.38721  0.48525  1.0000
  C   C2        1.0  0.61279  0.61279  0.51475  1.0000
  C   C3        1.0  0.27971  0.27971  0.18195  1.0000
  C   C4        1.0  0.72029  0.72029  0.81805  1.0000
  C   C5        1.0  0.05375  0.05375  0.15129  1.0000
  C   C6        1.0  0.94625  0.94625  0.84871  1.0000
