data_image0
_chemical_formula_structural       Cl6Cd2
_chemical_formula_sum              "Cl6 Cd2"
_cell_length_a       3.86132
_cell_length_b       9.81129
_cell_length_c       5.3518
_cell_angle_alpha    90
_cell_angle_beta     90
_cell_angle_gamma    90

_space_group_name_H-M_alt    "P 1"
_space_group_IT_number       1

loop_
  _space_group_symop_operation_xyz
  'x, y, z'

loop_
  _atom_site_type_symbol
  _atom_site_label
  _atom_site_symmetry_multiplicity
  _atom_site_fract_x
  _atom_site_fract_y
  _atom_site_fract_z
  _atom_site_occupancy
  Cl  Cl1       1.0  0.00000  0.31540  0.24801  1.0000
  Cl  Cl2       1.0  0.00000  0.31540  0.75199  1.0000
  Cl  Cl3       1.0  0.50000  0.68460  0.25199  1.0000
  Cl  Cl4       1.0  0.50000  0.68460  0.74801  1.0000
  Cl  Cl5       1.0  0.00000  0.97120  0.50000  1.0000
  Cl  Cl6       1.0  0.50000  0.02880  0.00000  1.0000
  Cd  Cd1       1.0  0.00000  0.84263  0.00000  1.0000
  Cd  Cd2       1.0  0.50000  0.15737  0.50000  1.0000
