data_image0
_chemical_formula_structural       C3Cd3
_chemical_formula_sum              "C3 Cd3"
_cell_length_a       3.41917
_cell_length_b       3.41917
_cell_length_c       8.47879
_cell_angle_alpha    90
_cell_angle_beta     90
_cell_angle_gamma    120

_space_group_name_H-M_alt    "P 1"
_space_group_IT_number       1

loop_
  _space_group_symop_operation_xyz
  'x, y, z'

loop_
  _atom_site_type_symbol
  _atom_site_label
  _atom_site_symmetry_multiplicity
  _atom_site_fract_x
  _atom_site_fract_y
  _atom_site_fract_z
  _atom_site_occupancy
  C   C1        1.0  0.33691  0.33691  0.00000  1.0000
  C   C2        1.0  0.00000  0.66309  0.66667  1.0000
  C   C3        1.0  0.66309  0.00000  0.33333  1.0000
  Cd  Cd1       1.0  0.33025  0.33025  0.50000  1.0000
  Cd  Cd2       1.0  1.00000  0.66975  0.16667  1.0000
  Cd  Cd3       1.0  0.66975  1.00000  0.83333  1.0000
