data_image0
_chemical_formula_structural       Cd6C20
_chemical_formula_sum              "Cd6 C20"
_cell_length_a       8.70633
_cell_length_b       8.70633
_cell_length_c       6.80532
_cell_angle_alpha    90
_cell_angle_beta     90
_cell_angle_gamma    120

_space_group_name_H-M_alt    "P 1"
_space_group_IT_number       1

loop_
  _space_group_symop_operation_xyz
  'x, y, z'

loop_
  _atom_site_type_symbol
  _atom_site_label
  _atom_site_symmetry_multiplicity
  _atom_site_fract_x
  _atom_site_fract_y
  _atom_site_fract_z
  _atom_site_occupancy
  Cd  Cd1       1.0  0.61215  0.80354  0.25000  1.0000
  Cd  Cd2       1.0  0.19646  0.80861  0.25000  1.0000
  Cd  Cd3       1.0  0.19139  0.38785  0.25000  1.0000
  Cd  Cd4       1.0  0.38785  0.19646  0.75000  1.0000
  Cd  Cd5       1.0  0.80354  0.19139  0.75000  1.0000
  Cd  Cd6       1.0  0.80861  0.61215  0.75000  1.0000
  C   C1        1.0  0.05154  0.10631  0.25000  1.0000
  C   C2        1.0  0.89369  0.94523  0.25000  1.0000
  C   C3        1.0  0.05477  0.94846  0.25000  1.0000
  C   C4        1.0  0.94846  0.89369  0.75000  1.0000
  C   C5        1.0  0.10631  0.05477  0.75000  1.0000
  C   C6        1.0  0.94523  0.05154  0.75000  1.0000
  C   C7        1.0  0.52544  0.04513  0.25000  1.0000
  C   C8        1.0  0.95487  0.48031  0.25000  1.0000
  C   C9        1.0  0.51969  0.47456  0.25000  1.0000
  C   C10       1.0  0.47456  0.95487  0.75000  1.0000
  C   C11       1.0  0.04513  0.51969  0.75000  1.0000
  C   C12       1.0  0.48031  0.52544  0.75000  1.0000
  C   C13       1.0  0.78122  0.39174  0.25000  1.0000
  C   C14       1.0  0.60826  0.38948  0.25000  1.0000
  C   C15       1.0  0.61052  0.21878  0.25000  1.0000
  C   C16       1.0  0.21878  0.60826  0.75000  1.0000
  C   C17       1.0  0.39174  0.61052  0.75000  1.0000
  C   C18       1.0  0.38948  0.78122  0.75000  1.0000
  C   C19       1.0  0.66667  0.33333  0.75000  1.0000
  C   C20       1.0  0.33333  0.66667  0.25000  1.0000
