data_image0
_chemical_formula_structural       Cd6Cl10
_chemical_formula_sum              "Cd6 Cl10"
_cell_length_a       4.00189
_cell_length_b       10.4196
_cell_length_c       10.3997
_cell_angle_alpha    90
_cell_angle_beta     90
_cell_angle_gamma    90

_space_group_name_H-M_alt    "P 1"
_space_group_IT_number       1

loop_
  _space_group_symop_operation_xyz
  'x, y, z'

loop_
  _atom_site_type_symbol
  _atom_site_label
  _atom_site_symmetry_multiplicity
  _atom_site_fract_x
  _atom_site_fract_y
  _atom_site_fract_z
  _atom_site_occupancy
  Cd  Cd1       1.0  0.50000  0.33485  0.90797  1.0000
  Cd  Cd2       1.0  0.50000  0.83485  0.59203  1.0000
  Cd  Cd3       1.0  0.00000  0.50000  0.50000  1.0000
  Cd  Cd4       1.0  0.00000  0.00000  0.00000  1.0000
  Cd  Cd5       1.0  0.50000  0.66515  0.09203  1.0000
  Cd  Cd6       1.0  0.50000  0.16515  0.40797  1.0000
  Cl  Cl1       1.0  0.50000  0.63100  0.38329  1.0000
  Cl  Cl2       1.0  0.50000  0.36900  0.61671  1.0000
  Cl  Cl3       1.0  0.00000  0.17978  0.82639  1.0000
  Cl  Cl4       1.0  0.50000  0.86900  0.88329  1.0000
  Cl  Cl5       1.0  0.00000  0.32022  0.32639  1.0000
  Cl  Cl6       1.0  0.00000  0.82022  0.17361  1.0000
  Cl  Cl7       1.0  0.00000  0.67978  0.67361  1.0000
  Cl  Cl8       1.0  0.00000  0.50000  0.00000  1.0000
  Cl  Cl9       1.0  0.00000  0.00000  0.50000  1.0000
  Cl  Cl10      1.0  0.50000  0.13100  0.11671  1.0000
