data_image0
_chemical_formula_structural       Cd4C12
_chemical_formula_sum              "Cd4 C12"
_cell_length_a       11.3537
_cell_length_b       11.3537
_cell_length_c       2.62875
_cell_angle_alpha    90
_cell_angle_beta     90
_cell_angle_gamma    147.505

_space_group_name_H-M_alt    "P 1"
_space_group_IT_number       1

loop_
  _space_group_symop_operation_xyz
  'x, y, z'

loop_
  _atom_site_type_symbol
  _atom_site_label
  _atom_site_symmetry_multiplicity
  _atom_site_fract_x
  _atom_site_fract_y
  _atom_site_fract_z
  _atom_site_occupancy
  Cd  Cd1       1.0  0.63378  0.36622  0.00000  1.0000
  Cd  Cd2       1.0  0.36622  0.63378  0.00000  1.0000
  Cd  Cd3       1.0  0.13378  0.86622  0.50000  1.0000
  Cd  Cd4       1.0  0.86622  0.13378  0.50000  1.0000
  C   C1        1.0  0.82256  0.82256  0.00141  1.0000
  C   C2        1.0  0.32256  0.32256  0.49859  1.0000
  C   C3        1.0  0.67744  0.67744  0.50141  1.0000
  C   C4        1.0  0.45470  0.54530  0.50000  1.0000
  C   C5        1.0  0.00011  0.50011  0.75000  1.0000
  C   C6        1.0  0.95470  0.04530  0.00000  1.0000
  C   C7        1.0  0.99989  0.49989  0.25000  1.0000
  C   C8        1.0  0.17744  0.17744  0.99859  1.0000
  C   C9        1.0  0.54530  0.45470  0.50000  1.0000
  C   C10       1.0  0.04530  0.95470  0.00000  1.0000
  C   C11       1.0  0.49989  0.99989  0.25000  1.0000
  C   C12       1.0  0.50011  0.00011  0.75000  1.0000
