data_image0
_chemical_formula_structural       Cd2C2
_chemical_formula_sum              "Cd2 C2"
_cell_length_a       6.34861
_cell_length_b       6.34861
_cell_length_c       2.64833
_cell_angle_alpha    90
_cell_angle_beta     90
_cell_angle_gamma    132.384

_space_group_name_H-M_alt    "P 1"
_space_group_IT_number       1

loop_
  _space_group_symop_operation_xyz
  'x, y, z'

loop_
  _atom_site_type_symbol
  _atom_site_label
  _atom_site_symmetry_multiplicity
  _atom_site_fract_x
  _atom_site_fract_y
  _atom_site_fract_z
  _atom_site_occupancy
  Cd  Cd1       1.0  0.19242  0.80758  0.75000  1.0000
  Cd  Cd2       1.0  0.80758  0.19242  0.25000  1.0000
  C   C1        1.0  0.50024  0.49976  0.75000  1.0000
  C   C2        1.0  0.49976  0.50024  0.25000  1.0000
