data_image0
_chemical_formula_structural       C10Cd6
_chemical_formula_sum              "C10 Cd6"
_cell_length_a       6.82994
_cell_length_b       6.82994
_cell_length_c       6.82994
_cell_angle_alpha    113.3
_cell_angle_beta     113.3
_cell_angle_gamma    102.058

_space_group_name_H-M_alt    "P 1"
_space_group_IT_number       1

loop_
  _space_group_symop_operation_xyz
  'x, y, z'

loop_
  _atom_site_type_symbol
  _atom_site_label
  _atom_site_symmetry_multiplicity
  _atom_site_fract_x
  _atom_site_fract_y
  _atom_site_fract_z
  _atom_site_occupancy
  C   C1        1.0  0.30963  0.62988  0.50000  1.0000
  C   C2        1.0  0.69037  0.37012  0.50000  1.0000
  C   C3        1.0  0.50000  0.50000  0.00000  1.0000
  C   C4        1.0  0.00000  0.00000  0.00000  1.0000
  C   C5        1.0  0.12988  0.80963  0.50000  1.0000
  C   C6        1.0  0.80963  0.30963  0.67975  1.0000
  C   C7        1.0  0.62988  0.12988  0.32025  1.0000
  C   C8        1.0  0.37012  0.87012  0.67975  1.0000
  C   C9        1.0  0.19037  0.69037  0.32025  1.0000
  C   C10       1.0  0.87012  0.19037  0.50000  1.0000
  Cd  Cd1       1.0  0.78105  0.71895  0.50000  1.0000
  Cd  Cd2       1.0  0.71895  0.21895  0.93790  1.0000
  Cd  Cd3       1.0  0.28105  0.78105  0.06210  1.0000
  Cd  Cd4       1.0  0.21895  0.28105  0.50000  1.0000
  Cd  Cd5       1.0  0.25000  0.25000  0.00000  1.0000
  Cd  Cd6       1.0  0.75000  0.75000  0.00000  1.0000
