data_image0
_chemical_formula_structural       Cd3C6
_chemical_formula_sum              "Cd3 C6"
_cell_length_a       4.38038
_cell_length_b       4.38038
_cell_length_c       11.084
_cell_angle_alpha    90
_cell_angle_beta     90
_cell_angle_gamma    120

_space_group_name_H-M_alt    "P 1"
_space_group_IT_number       1

loop_
  _space_group_symop_operation_xyz
  'x, y, z'

loop_
  _atom_site_type_symbol
  _atom_site_label
  _atom_site_symmetry_multiplicity
  _atom_site_fract_x
  _atom_site_fract_y
  _atom_site_fract_z
  _atom_site_occupancy
  Cd  Cd1       1.0  0.00000  0.50000  0.16667  1.0000
  Cd  Cd2       1.0  0.50000  0.50000  0.83333  1.0000
  Cd  Cd3       1.0  0.50000  0.00000  0.50000  1.0000
  C   C1        1.0  0.91590  0.83181  0.50000  1.0000
  C   C2        1.0  0.08410  0.91590  0.83333  1.0000
  C   C3        1.0  0.83181  0.91590  0.16667  1.0000
  C   C4        1.0  0.08410  0.16819  0.50000  1.0000
  C   C5        1.0  0.91590  0.08410  0.83333  1.0000
  C   C6        1.0  0.16819  0.08410  0.16667  1.0000
