data_image0
_chemical_formula_structural       Cd3Cl4
_chemical_formula_sum              "Cd3 Cl4"
_cell_length_a       9.4313
_cell_length_b       9.4313
_cell_length_c       9.79727
_cell_angle_alpha    41.0976
_cell_angle_beta     41.0976
_cell_angle_gamma    23.3539

_space_group_name_H-M_alt    "P 1"
_space_group_IT_number       1

loop_
  _space_group_symop_operation_xyz
  'x, y, z'

loop_
  _atom_site_type_symbol
  _atom_site_label
  _atom_site_symmetry_multiplicity
  _atom_site_fract_x
  _atom_site_fract_y
  _atom_site_fract_z
  _atom_site_occupancy
  Cd  Cd1       1.0  0.26161  0.26161  0.65715  1.0000
  Cd  Cd2       1.0  0.73839  0.73839  0.34285  1.0000
  Cd  Cd3       1.0  0.50000  0.50000  0.50000  1.0000
  Cl  Cl1       1.0  0.87995  0.87995  0.34896  1.0000
  Cl  Cl2       1.0  0.12005  0.12005  0.65104  1.0000
  Cl  Cl3       1.0  0.30753  0.30753  0.09126  1.0000
  Cl  Cl4       1.0  0.69247  0.69247  0.90874  1.0000
