data_image0
_chemical_formula_structural       CdF4
_chemical_formula_sum              "Cd1 F4"
_cell_length_a       4.23969
_cell_length_b       4.23969
_cell_length_c       4.23969
_cell_angle_alpha    105.342
_cell_angle_beta     105.342
_cell_angle_gamma    118.088

_space_group_name_H-M_alt    "P 1"
_space_group_IT_number       1

loop_
  _space_group_symop_operation_xyz
  'x, y, z'

loop_
  _atom_site_type_symbol
  _atom_site_label
  _atom_site_symmetry_multiplicity
  _atom_site_fract_x
  _atom_site_fract_y
  _atom_site_fract_z
  _atom_site_occupancy
  Cd  Cd1       1.0  0.00000  0.00000  0.00000  1.0000
  F   F1        1.0  0.59807  0.82118  0.41925  1.0000
  F   F2        1.0  0.40193  0.17882  0.58075  1.0000
  F   F3        1.0  0.17882  0.59807  0.77690  1.0000
  F   F4        1.0  0.82118  0.40193  0.22310  1.0000
