data_image0
_chemical_formula_structural       F10Cd6
_chemical_formula_sum              "F10 Cd6"
_cell_length_a       6.9918
_cell_length_b       6.9918
_cell_length_c       6.9918
_cell_angle_alpha    123.634
_cell_angle_beta     123.634
_cell_angle_gamma    83.8126

_space_group_name_H-M_alt    "P 1"
_space_group_IT_number       1

loop_
  _space_group_symop_operation_xyz
  'x, y, z'

loop_
  _atom_site_type_symbol
  _atom_site_label
  _atom_site_symmetry_multiplicity
  _atom_site_fract_x
  _atom_site_fract_y
  _atom_site_fract_z
  _atom_site_occupancy
  F   F1        1.0  0.51837  0.71415  0.50000  1.0000
  F   F2        1.0  0.48163  0.28585  0.50000  1.0000
  F   F3        1.0  0.50000  0.50000  0.00000  1.0000
  F   F4        1.0  0.00000  0.00000  0.00000  1.0000
  F   F5        1.0  0.21415  0.01837  0.50000  1.0000
  F   F6        1.0  0.01837  0.51837  0.80422  1.0000
  F   F7        1.0  0.71415  0.21415  0.19578  1.0000
  F   F8        1.0  0.28585  0.78585  0.80422  1.0000
  F   F9        1.0  0.98163  0.48163  0.19578  1.0000
  F   F10       1.0  0.78585  0.98163  0.50000  1.0000
  Cd  Cd1       1.0  0.84463  0.65537  0.50000  1.0000
  Cd  Cd2       1.0  0.65537  0.15537  0.81075  1.0000
  Cd  Cd3       1.0  0.34463  0.84463  0.18925  1.0000
  Cd  Cd4       1.0  0.15537  0.34463  0.50000  1.0000
  Cd  Cd5       1.0  0.25000  0.25000  0.00000  1.0000
  Cd  Cd6       1.0  0.75000  0.75000  0.00000  1.0000
