data_image0
_chemical_formula_structural       Cd3F4
_chemical_formula_sum              "Cd3 F4"
_cell_length_a       7.12405
_cell_length_b       7.12405
_cell_length_c       6.35284
_cell_angle_alpha    62.1467
_cell_angle_beta     62.1467
_cell_angle_gamma    29.6537

_space_group_name_H-M_alt    "P 1"
_space_group_IT_number       1

loop_
  _space_group_symop_operation_xyz
  'x, y, z'

loop_
  _atom_site_type_symbol
  _atom_site_label
  _atom_site_symmetry_multiplicity
  _atom_site_fract_x
  _atom_site_fract_y
  _atom_site_fract_z
  _atom_site_occupancy
  Cd  Cd1       1.0  0.25307  0.25307  0.74637  1.0000
  Cd  Cd2       1.0  0.74693  0.74693  0.25363  1.0000
  Cd  Cd3       1.0  0.50000  0.50000  0.50000  1.0000
  F   F1        1.0  0.83383  0.83383  0.47780  1.0000
  F   F2        1.0  0.16617  0.16617  0.52220  1.0000
  F   F3        1.0  0.32827  0.32827  0.01397  1.0000
  F   F4        1.0  0.67173  0.67173  0.98603  1.0000
