data_image0
_chemical_formula_structural       Cl10Cd6
_chemical_formula_sum              "Cl10 Cd6"
_cell_length_a       8.30328
_cell_length_b       8.30328
_cell_length_c       8.30328
_cell_angle_alpha    124.767
_cell_angle_beta     124.767
_cell_angle_gamma    81.9248

_space_group_name_H-M_alt    "P 1"
_space_group_IT_number       1

loop_
  _space_group_symop_operation_xyz
  'x, y, z'

loop_
  _atom_site_type_symbol
  _atom_site_label
  _atom_site_symmetry_multiplicity
  _atom_site_fract_x
  _atom_site_fract_y
  _atom_site_fract_z
  _atom_site_occupancy
  Cl  Cl1       1.0  0.51687  0.71490  0.50000  1.0000
  Cl  Cl2       1.0  0.48313  0.28510  0.50000  1.0000
  Cl  Cl3       1.0  0.50000  0.50000  0.00000  1.0000
  Cl  Cl4       1.0  0.00000  0.00000  0.00000  1.0000
  Cl  Cl5       1.0  0.21490  0.01687  0.50000  1.0000
  Cl  Cl6       1.0  0.01687  0.51687  0.80197  1.0000
  Cl  Cl7       1.0  0.71490  0.21490  0.19803  1.0000
  Cl  Cl8       1.0  0.28510  0.78510  0.80197  1.0000
  Cl  Cl9       1.0  0.98313  0.48313  0.19803  1.0000
  Cl  Cl10      1.0  0.78510  0.98313  0.50000  1.0000
  Cd  Cd1       1.0  0.84166  0.65834  0.50000  1.0000
  Cd  Cd2       1.0  0.65834  0.15834  0.81667  1.0000
  Cd  Cd3       1.0  0.34166  0.84166  0.18333  1.0000
  Cd  Cd4       1.0  0.15834  0.34166  0.50000  1.0000
  Cd  Cd5       1.0  0.25000  0.25000  0.00000  1.0000
  Cd  Cd6       1.0  0.75000  0.75000  0.00000  1.0000
