data_image0
_chemical_formula_structural       Cd2F2
_chemical_formula_sum              "Cd2 F2"
_cell_length_a       6.37277
_cell_length_b       6.37277
_cell_length_c       3.32569
_cell_angle_alpha    90
_cell_angle_beta     90
_cell_angle_gamma    152.098

_space_group_name_H-M_alt    "P 1"
_space_group_IT_number       1

loop_
  _space_group_symop_operation_xyz
  'x, y, z'

loop_
  _atom_site_type_symbol
  _atom_site_label
  _atom_site_symmetry_multiplicity
  _atom_site_fract_x
  _atom_site_fract_y
  _atom_site_fract_z
  _atom_site_occupancy
  Cd  Cd1       1.0  0.15970  0.84030  0.75000  1.0000
  Cd  Cd2       1.0  0.84030  0.15970  0.25000  1.0000
  F   F1        1.0  0.41584  0.58416  0.75000  1.0000
  F   F2        1.0  0.58416  0.41584  0.25000  1.0000
