data_image0
_chemical_formula_structural       Cd4Hg6
_chemical_formula_sum              "Cd4 Hg6"
_cell_length_a       7.54335
_cell_length_b       7.54335
_cell_length_c       7.54335
_cell_angle_alpha    131.795
_cell_angle_beta     117.662
_cell_angle_gamma    82.4881

_space_group_name_H-M_alt    "P 1"
_space_group_IT_number       1

loop_
  _space_group_symop_operation_xyz
  'x, y, z'

loop_
  _atom_site_type_symbol
  _atom_site_label
  _atom_site_symmetry_multiplicity
  _atom_site_fract_x
  _atom_site_fract_y
  _atom_site_fract_z
  _atom_site_occupancy
  Cd  Cd1       1.0  0.59013  0.34043  0.24969  1.0000
  Cd  Cd2       1.0  0.40987  0.65957  0.75031  1.0000
  Cd  Cd3       1.0  0.90926  0.15957  0.74969  1.0000
  Cd  Cd4       1.0  0.09074  0.84043  0.25031  1.0000
  Hg  Hg1       1.0  0.52441  0.89685  0.62756  1.0000
  Hg  Hg2       1.0  0.47559  0.10315  0.37244  1.0000
  Hg  Hg3       1.0  0.26929  0.39685  0.87244  1.0000
  Hg  Hg4       1.0  0.73071  0.60315  0.12756  1.0000
  Hg  Hg5       1.0  0.00000  0.75000  0.75000  1.0000
  Hg  Hg6       1.0  0.00000  0.25000  0.25000  1.0000
