data_image0
_chemical_formula_structural       CdCl2
_chemical_formula_sum              "Cd1 Cl2"
_cell_length_a       3.90562
_cell_length_b       3.90562
_cell_length_c       6.4624
_cell_angle_alpha    89.1093
_cell_angle_beta     89.1093
_cell_angle_gamma    59.8455

_space_group_name_H-M_alt    "P 1"
_space_group_IT_number       1

loop_
  _space_group_symop_operation_xyz
  'x, y, z'

loop_
  _atom_site_type_symbol
  _atom_site_label
  _atom_site_symmetry_multiplicity
  _atom_site_fract_x
  _atom_site_fract_y
  _atom_site_fract_z
  _atom_site_occupancy
  Cd  Cd1       1.0  0.66681  0.33319  0.50000  1.0000
  Cl  Cl1       1.0  0.33157  0.99838  0.72375  1.0000
  Cl  Cl2       1.0  0.00162  0.66843  0.27625  1.0000
