data_image0
_chemical_formula_structural       Cd2F4
_chemical_formula_sum              "Cd2 F4"
_cell_length_a       4.76934
_cell_length_b       4.76934
_cell_length_c       4.76934
_cell_angle_alpha    112.761
_cell_angle_beta     112.761
_cell_angle_gamma    103.074

_space_group_name_H-M_alt    "P 1"
_space_group_IT_number       1

loop_
  _space_group_symop_operation_xyz
  'x, y, z'

loop_
  _atom_site_type_symbol
  _atom_site_label
  _atom_site_symmetry_multiplicity
  _atom_site_fract_x
  _atom_site_fract_y
  _atom_site_fract_z
  _atom_site_occupancy
  Cd  Cd1       1.0  0.75000  0.75000  1.00000  1.0000
  Cd  Cd2       1.0  0.25000  0.25000  0.00000  1.0000
  F   F1        1.0  0.71804  0.21804  0.93608  1.0000
  F   F2        1.0  0.21804  0.28196  0.50000  1.0000
  F   F3        1.0  0.78196  0.71804  0.50000  1.0000
  F   F4        1.0  0.28196  0.78196  0.06392  1.0000
