data_image0
_chemical_formula_structural       F12Cd4
_chemical_formula_sum              "F12 Cd4"
_cell_length_a       6.06922
_cell_length_b       6.06922
_cell_length_c       6.4924
_cell_angle_alpha    90
_cell_angle_beta     90
_cell_angle_gamma    90

_space_group_name_H-M_alt    "P 1"
_space_group_IT_number       1

loop_
  _space_group_symop_operation_xyz
  'x, y, z'

loop_
  _atom_site_type_symbol
  _atom_site_label
  _atom_site_symmetry_multiplicity
  _atom_site_fract_x
  _atom_site_fract_y
  _atom_site_fract_z
  _atom_site_occupancy
  F   F1        1.0  0.50000  0.00000  0.00000  1.0000
  F   F2        1.0  0.50000  0.00000  0.50000  1.0000
  F   F3        1.0  0.00000  0.50000  0.00000  1.0000
  F   F4        1.0  0.00000  0.50000  0.50000  1.0000
  F   F5        1.0  0.61767  0.38233  0.71920  1.0000
  F   F6        1.0  0.88233  0.88233  0.78080  1.0000
  F   F7        1.0  0.11767  0.11767  0.78080  1.0000
  F   F8        1.0  0.38233  0.61767  0.71920  1.0000
  F   F9        1.0  0.38233  0.61767  0.28080  1.0000
  F   F10       1.0  0.61767  0.38233  0.28080  1.0000
  F   F11       1.0  0.88233  0.88233  0.21920  1.0000
  F   F12       1.0  0.11767  0.11767  0.21920  1.0000
  Cd  Cd1       1.0  0.78919  0.21081  0.00000  1.0000
  Cd  Cd2       1.0  0.71081  0.71081  0.50000  1.0000
  Cd  Cd3       1.0  0.28919  0.28919  0.50000  1.0000
  Cd  Cd4       1.0  0.21081  0.78919  0.00000  1.0000
