data_image0
_chemical_formula_structural       Cd3Hg4
_chemical_formula_sum              "Cd3 Hg4"
_cell_length_a       7.40849
_cell_length_b       7.40849
_cell_length_c       7.99451
_cell_angle_alpha    55.7775
_cell_angle_beta     55.7775
_cell_angle_gamma    34.9857

_space_group_name_H-M_alt    "P 1"
_space_group_IT_number       1

loop_
  _space_group_symop_operation_xyz
  'x, y, z'

loop_
  _atom_site_type_symbol
  _atom_site_label
  _atom_site_symmetry_multiplicity
  _atom_site_fract_x
  _atom_site_fract_y
  _atom_site_fract_z
  _atom_site_occupancy
  Cd  Cd1       1.0  0.23765  0.23765  0.78389  1.0000
  Cd  Cd2       1.0  0.76235  0.76235  0.21611  1.0000
  Cd  Cd3       1.0  0.50000  0.50000  0.50000  1.0000
  Hg  Hg1       1.0  0.88076  0.88076  0.42538  1.0000
  Hg  Hg2       1.0  0.11924  0.11924  0.57462  1.0000
  Hg  Hg3       1.0  0.41467  0.41467  0.94129  1.0000
  Hg  Hg4       1.0  0.58533  0.58533  0.05871  1.0000
