data_image0
_chemical_formula_structural       Cd7F20
_chemical_formula_sum              "Cd7 F20"
_cell_length_a       7.24662
_cell_length_b       7.24662
_cell_length_c       7.24662
_cell_angle_alpha    102.31
_cell_angle_beta     102.31
_cell_angle_gamma    102.31

_space_group_name_H-M_alt    "P 1"
_space_group_IT_number       1

loop_
  _space_group_symop_operation_xyz
  'x, y, z'

loop_
  _atom_site_type_symbol
  _atom_site_label
  _atom_site_symmetry_multiplicity
  _atom_site_fract_x
  _atom_site_fract_y
  _atom_site_fract_z
  _atom_site_occupancy
  Cd  Cd1       1.0  0.00000  0.00000  0.00000  1.0000
  Cd  Cd2       1.0  0.43548  0.91897  0.72680  1.0000
  Cd  Cd3       1.0  0.91897  0.72680  0.43548  1.0000
  Cd  Cd4       1.0  0.72680  0.43548  0.91897  1.0000
  Cd  Cd5       1.0  0.56452  0.08103  0.27320  1.0000
  Cd  Cd6       1.0  0.08103  0.27320  0.56452  1.0000
  Cd  Cd7       1.0  0.27320  0.56452  0.08103  1.0000
  F   F1        1.0  0.42365  0.42365  0.42365  1.0000
  F   F2        1.0  0.57635  0.57635  0.57635  1.0000
  F   F3        1.0  0.05475  0.29292  0.23886  1.0000
  F   F4        1.0  0.29292  0.23886  0.05475  1.0000
  F   F5        1.0  0.23886  0.05475  0.29292  1.0000
  F   F6        1.0  0.94525  0.70708  0.76114  1.0000
  F   F7        1.0  0.70708  0.76114  0.94525  1.0000
  F   F8        1.0  0.76114  0.94525  0.70708  1.0000
  F   F9        1.0  0.64847  0.15328  0.00517  1.0000
  F   F10       1.0  0.15328  0.00517  0.64847  1.0000
  F   F11       1.0  0.00517  0.64847  0.15328  1.0000
  F   F12       1.0  0.35153  0.84672  0.99483  1.0000
  F   F13       1.0  0.84672  0.99483  0.35153  1.0000
  F   F14       1.0  0.99483  0.35153  0.84672  1.0000
  F   F15       1.0  0.18242  0.61966  0.59973  1.0000
  F   F16       1.0  0.61966  0.59973  0.18242  1.0000
  F   F17       1.0  0.59973  0.18242  0.61966  1.0000
  F   F18       1.0  0.81758  0.38034  0.40027  1.0000
  F   F19       1.0  0.38034  0.40027  0.81758  1.0000
  F   F20       1.0  0.40027  0.81758  0.38034  1.0000
