data_image0
_chemical_formula_structural       Cd4F8
_chemical_formula_sum              "Cd4 F8"
_cell_length_a       7.57761
_cell_length_b       7.57761
_cell_length_c       9.72423
_cell_angle_alpha    44.5653
_cell_angle_beta     44.5653
_cell_angle_gamma    25.3002

_space_group_name_H-M_alt    "P 1"
_space_group_IT_number       1

loop_
  _space_group_symop_operation_xyz
  'x, y, z'

loop_
  _atom_site_type_symbol
  _atom_site_label
  _atom_site_symmetry_multiplicity
  _atom_site_fract_x
  _atom_site_fract_y
  _atom_site_fract_z
  _atom_site_occupancy
  Cd  Cd1       1.0  0.73579  0.73579  0.84102  1.0000
  Cd  Cd2       1.0  0.26421  0.26421  0.15898  1.0000
  Cd  Cd3       1.0  0.42475  0.42475  0.32672  1.0000
  Cd  Cd4       1.0  0.57525  0.57525  0.67328  1.0000
  F   F1        1.0  0.07045  0.07045  0.05840  1.0000
  F   F2        1.0  0.92955  0.92955  0.94160  1.0000
  F   F3        1.0  0.90417  0.90417  0.50278  1.0000
  F   F4        1.0  0.09583  0.09583  0.49722  1.0000
  F   F5        1.0  0.65176  0.65176  0.17696  1.0000
  F   F6        1.0  0.34824  0.34824  0.82304  1.0000
  F   F7        1.0  0.19433  0.19433  0.67311  1.0000
  F   F8        1.0  0.80567  0.80567  0.32689  1.0000
