data_image0
_chemical_formula_structural       Cd8Hg16
_chemical_formula_sum              "Cd8 Hg16"
_cell_length_a       5.63005
_cell_length_b       9.4874
_cell_length_c       11.9255
_cell_angle_alpha    90
_cell_angle_beta     90
_cell_angle_gamma    90

_space_group_name_H-M_alt    "P 1"
_space_group_IT_number       1

loop_
  _space_group_symop_operation_xyz
  'x, y, z'

loop_
  _atom_site_type_symbol
  _atom_site_label
  _atom_site_symmetry_multiplicity
  _atom_site_fract_x
  _atom_site_fract_y
  _atom_site_fract_z
  _atom_site_occupancy
  Cd  Cd1       1.0  0.41957  0.82140  0.09521  1.0000
  Cd  Cd2       1.0  0.08043  0.67860  0.59521  1.0000
  Cd  Cd3       1.0  0.08043  0.32140  0.90479  1.0000
  Cd  Cd4       1.0  0.41957  0.17860  0.40479  1.0000
  Cd  Cd5       1.0  0.58043  0.17860  0.90479  1.0000
  Cd  Cd6       1.0  0.91957  0.32140  0.40479  1.0000
  Cd  Cd7       1.0  0.91957  0.67860  0.09521  1.0000
  Cd  Cd8       1.0  0.58043  0.82140  0.59521  1.0000
  Hg  Hg1       1.0  0.37510  0.50000  0.25000  1.0000
  Hg  Hg2       1.0  0.12490  0.00000  0.75000  1.0000
  Hg  Hg3       1.0  0.62490  0.50000  0.75000  1.0000
  Hg  Hg4       1.0  0.87510  0.00000  0.25000  1.0000
  Hg  Hg5       1.0  0.40989  0.84155  0.34924  1.0000
  Hg  Hg6       1.0  0.09011  0.65845  0.84924  1.0000
  Hg  Hg7       1.0  0.09011  0.34155  0.65076  1.0000
  Hg  Hg8       1.0  0.40989  0.15845  0.15076  1.0000
  Hg  Hg9       1.0  0.59011  0.15845  0.65076  1.0000
  Hg  Hg10      1.0  0.90989  0.34155  0.15076  1.0000
  Hg  Hg11      1.0  0.90989  0.65845  0.34924  1.0000
  Hg  Hg12      1.0  0.59011  0.84155  0.84924  1.0000
  Hg  Hg13      1.0  0.50000  0.50000  0.00000  1.0000
  Hg  Hg14      1.0  0.00000  0.00000  0.50000  1.0000
  Hg  Hg15      1.0  0.00000  0.00000  0.00000  1.0000
  Hg  Hg16      1.0  0.50000  0.50000  0.50000  1.0000
