data_image0
_chemical_formula_structural       Cd10F6
_chemical_formula_sum              "Cd10 F6"
_cell_length_a       7.7106
_cell_length_b       7.7106
_cell_length_c       7.7106
_cell_angle_alpha    98.6991
_cell_angle_beta     98.6991
_cell_angle_gamma    134.227

_space_group_name_H-M_alt    "P 1"
_space_group_IT_number       1

loop_
  _space_group_symop_operation_xyz
  'x, y, z'

loop_
  _atom_site_type_symbol
  _atom_site_label
  _atom_site_symmetry_multiplicity
  _atom_site_fract_x
  _atom_site_fract_y
  _atom_site_fract_z
  _atom_site_occupancy
  Cd  Cd1       1.0  0.52458  0.26538  0.78996  1.0000
  Cd  Cd2       1.0  0.47542  0.73462  0.21004  1.0000
  Cd  Cd3       1.0  0.73462  0.52458  0.25920  1.0000
  Cd  Cd4       1.0  0.26538  0.47542  0.74080  1.0000
  Cd  Cd5       1.0  0.97542  0.76538  0.74080  1.0000
  Cd  Cd6       1.0  0.23462  0.97542  0.21004  1.0000
  Cd  Cd7       1.0  0.25000  0.75000  0.50000  1.0000
  Cd  Cd8       1.0  0.75000  0.25000  0.50000  1.0000
  Cd  Cd9       1.0  0.02458  0.23462  0.25920  1.0000
  Cd  Cd10      1.0  0.76538  0.02458  0.78996  1.0000
  F   F1        1.0  0.76000  0.26000  0.02000  1.0000
  F   F2        1.0  0.74000  0.76000  0.50000  1.0000
  F   F3        1.0  0.26000  0.24000  0.50000  1.0000
  F   F4        1.0  0.24000  0.74000  0.98000  1.0000
  F   F5        1.0  0.75000  0.75000  0.00000  1.0000
  F   F6        1.0  0.25000  0.25000  0.00000  1.0000
