data_image0
_chemical_formula_structural       Cd3F4
_chemical_formula_sum              "Cd3 F4"
_cell_length_a       7.15422
_cell_length_b       7.15422
_cell_length_c       6.32469
_cell_angle_alpha    61.8013
_cell_angle_beta     61.8013
_cell_angle_gamma    29.5938

_space_group_name_H-M_alt    "P 1"
_space_group_IT_number       1

loop_
  _space_group_symop_operation_xyz
  'x, y, z'

loop_
  _atom_site_type_symbol
  _atom_site_label
  _atom_site_symmetry_multiplicity
  _atom_site_fract_x
  _atom_site_fract_y
  _atom_site_fract_z
  _atom_site_occupancy
  Cd  Cd1       1.0  0.00000  0.00000  0.00000  1.0000
  Cd  Cd2       1.0  0.24731  0.24731  0.75382  1.0000
  Cd  Cd3       1.0  0.75269  0.75269  0.24618  1.0000
  F   F1        1.0  0.17240  0.17240  0.48579  1.0000
  F   F2        1.0  0.82760  0.82760  0.51421  1.0000
  F   F3        1.0  0.66580  0.66580  0.02318  1.0000
  F   F4        1.0  0.33420  0.33420  0.97682  1.0000
