data_image0
_chemical_formula_structural       CdHg4
_chemical_formula_sum              "Cd1 Hg4"
_cell_length_a       6.03534
_cell_length_b       6.03534
_cell_length_c       6.03534
_cell_angle_alpha    97.3928
_cell_angle_beta     97.3928
_cell_angle_gamma    137.958

_space_group_name_H-M_alt    "P 1"
_space_group_IT_number       1

loop_
  _space_group_symop_operation_xyz
  'x, y, z'

loop_
  _atom_site_type_symbol
  _atom_site_label
  _atom_site_symmetry_multiplicity
  _atom_site_fract_x
  _atom_site_fract_y
  _atom_site_fract_z
  _atom_site_occupancy
  Cd  Cd1       1.0  0.00000  0.00000  0.00000  1.0000
  Hg  Hg1       1.0  0.59442  0.79473  0.38915  1.0000
  Hg  Hg2       1.0  0.40558  0.20527  0.61085  1.0000
  Hg  Hg3       1.0  0.20527  0.59442  0.79970  1.0000
  Hg  Hg4       1.0  0.79473  0.40558  0.20030  1.0000
