data_image0
_chemical_formula_structural       Cd6F16
_chemical_formula_sum              "Cd6 F16"
_cell_length_a       5.73166
_cell_length_b       5.65287
_cell_length_c       12.7523
_cell_angle_alpha    60.9354
_cell_angle_beta     90
_cell_angle_gamma    90

_space_group_name_H-M_alt    "P 1"
_space_group_IT_number       1

loop_
  _space_group_symop_operation_xyz
  'x, y, z'

loop_
  _atom_site_type_symbol
  _atom_site_label
  _atom_site_symmetry_multiplicity
  _atom_site_fract_x
  _atom_site_fract_y
  _atom_site_fract_z
  _atom_site_occupancy
  Cd  Cd1       1.0  0.49717  0.73542  0.74928  1.0000
  Cd  Cd2       1.0  0.50283  0.26458  0.25072  1.0000
  Cd  Cd3       1.0  0.50000  0.00000  0.00000  1.0000
  Cd  Cd4       1.0  0.99717  0.26458  0.75072  1.0000
  Cd  Cd5       1.0  0.00283  0.73542  0.24928  1.0000
  Cd  Cd6       1.0  0.00000  0.00000  0.50000  1.0000
  F   F1        1.0  0.67871  0.67161  0.16762  1.0000
  F   F2        1.0  0.67720  0.10276  0.71560  1.0000
  F   F3        1.0  0.57831  0.67298  0.93987  1.0000
  F   F4        1.0  0.69442  0.21733  0.41118  1.0000
  F   F5        1.0  0.80558  0.21733  0.91118  1.0000
  F   F6        1.0  0.82280  0.10276  0.21560  1.0000
  F   F7        1.0  0.92169  0.67298  0.43987  1.0000
  F   F8        1.0  0.82129  0.67161  0.66762  1.0000
  F   F9        1.0  0.17720  0.89724  0.78440  1.0000
  F   F10       1.0  0.19442  0.78267  0.08882  1.0000
  F   F11       1.0  0.07831  0.32702  0.56013  1.0000
  F   F12       1.0  0.17871  0.32839  0.33238  1.0000
  F   F13       1.0  0.42169  0.32702  0.06013  1.0000
  F   F14       1.0  0.32129  0.32839  0.83238  1.0000
  F   F15       1.0  0.32280  0.89724  0.28440  1.0000
  F   F16       1.0  0.30558  0.78267  0.58882  1.0000
