data_image0
_chemical_formula_structural       Cd4F8
_chemical_formula_sum              "Cd4 F8"
_cell_length_a       7.01562
_cell_length_b       7.01562
_cell_length_c       7.01562
_cell_angle_alpha    60
_cell_angle_beta     60
_cell_angle_gamma    60

_space_group_name_H-M_alt    "P 1"
_space_group_IT_number       1

loop_
  _space_group_symop_operation_xyz
  'x, y, z'

loop_
  _atom_site_type_symbol
  _atom_site_label
  _atom_site_symmetry_multiplicity
  _atom_site_fract_x
  _atom_site_fract_y
  _atom_site_fract_z
  _atom_site_occupancy
  Cd  Cd1       1.0  0.62500  0.62500  0.62500  1.0000
  Cd  Cd2       1.0  0.12500  0.62500  0.62500  1.0000
  Cd  Cd3       1.0  0.62500  0.12500  0.62500  1.0000
  Cd  Cd4       1.0  0.62500  0.62500  0.12500  1.0000
  F   F1        1.0  0.85315  0.44055  0.85315  1.0000
  F   F2        1.0  0.39685  0.39685  0.80945  1.0000
  F   F3        1.0  0.80945  0.39685  0.39685  1.0000
  F   F4        1.0  0.39685  0.39685  0.39685  1.0000
  F   F5        1.0  0.44055  0.85315  0.85315  1.0000
  F   F6        1.0  0.85315  0.85315  0.85315  1.0000
  F   F7        1.0  0.85315  0.85315  0.44055  1.0000
  F   F8        1.0  0.39685  0.80945  0.39685  1.0000
