data_image0
_chemical_formula_structural       Cd2F6
_chemical_formula_sum              "Cd2 F6"
_cell_length_a       5.19401
_cell_length_b       5.19401
_cell_length_c       5.19401
_cell_angle_alpha    117.766
_cell_angle_beta     117.766
_cell_angle_gamma    93.9159

_space_group_name_H-M_alt    "P 1"
_space_group_IT_number       1

loop_
  _space_group_symop_operation_xyz
  'x, y, z'

loop_
  _atom_site_type_symbol
  _atom_site_label
  _atom_site_symmetry_multiplicity
  _atom_site_fract_x
  _atom_site_fract_y
  _atom_site_fract_z
  _atom_site_occupancy
  Cd  Cd1       1.0  0.75000  0.25000  0.50000  1.0000
  Cd  Cd2       1.0  0.25000  0.75000  0.50000  1.0000
  F   F1        1.0  0.75000  0.75000  0.00000  1.0000
  F   F2        1.0  0.25000  0.25000  0.00000  1.0000
  F   F3        1.0  0.18231  0.68231  0.86462  1.0000
  F   F4        1.0  0.81769  0.31769  0.13538  1.0000
  F   F5        1.0  0.68231  0.81769  0.50000  1.0000
  F   F6        1.0  0.31769  0.18231  0.50000  1.0000
