data_image0
_chemical_formula_structural       Cd8F16
_chemical_formula_sum              "Cd8 F16"
_cell_length_a       6.64886
_cell_length_b       5.64714
_cell_length_c       10.2833
_cell_angle_alpha    90
_cell_angle_beta     90
_cell_angle_gamma    90

_space_group_name_H-M_alt    "P 1"
_space_group_IT_number       1

loop_
  _space_group_symop_operation_xyz
  'x, y, z'

loop_
  _atom_site_type_symbol
  _atom_site_label
  _atom_site_symmetry_multiplicity
  _atom_site_fract_x
  _atom_site_fract_y
  _atom_site_fract_z
  _atom_site_occupancy
  Cd  Cd1       1.0  0.67778  0.81638  0.08735  1.0000
  Cd  Cd2       1.0  0.82222  0.68362  0.58735  1.0000
  Cd  Cd3       1.0  0.82222  0.31638  0.91265  1.0000
  Cd  Cd4       1.0  0.67778  0.18362  0.41265  1.0000
  Cd  Cd5       1.0  0.32222  0.18362  0.91265  1.0000
  Cd  Cd6       1.0  0.17778  0.31638  0.41265  1.0000
  Cd  Cd7       1.0  0.17778  0.68362  0.08735  1.0000
  Cd  Cd8       1.0  0.32222  0.81638  0.58735  1.0000
  F   F1        1.0  0.30955  0.50000  0.25000  1.0000
  F   F2        1.0  0.19045  0.00000  0.75000  1.0000
  F   F3        1.0  0.69045  0.50000  0.75000  1.0000
  F   F4        1.0  0.80955  0.00000  0.25000  1.0000
  F   F5        1.0  0.37887  0.00690  0.39336  1.0000
  F   F6        1.0  0.12113  0.49310  0.89336  1.0000
  F   F7        1.0  0.12113  0.50690  0.60664  1.0000
  F   F8        1.0  0.37887  0.99310  0.10664  1.0000
  F   F9        1.0  0.62113  0.99310  0.60664  1.0000
  F   F10       1.0  0.87887  0.50690  0.10664  1.0000
  F   F11       1.0  0.87887  0.49310  0.39336  1.0000
  F   F12       1.0  0.62113  0.00690  0.89336  1.0000
  F   F13       1.0  0.50000  0.50000  0.00000  1.0000
  F   F14       1.0  0.00000  0.00000  0.50000  1.0000
  F   F15       1.0  0.00000  0.00000  0.00000  1.0000
  F   F16       1.0  0.50000  0.50000  0.50000  1.0000
