data_image0
_chemical_formula_structural       Cd9F8
_chemical_formula_sum              "Cd9 F8"
_cell_length_a       7.91626
_cell_length_b       7.91626
_cell_length_c       7.91626
_cell_angle_alpha    60
_cell_angle_beta     60
_cell_angle_gamma    60

_space_group_name_H-M_alt    "P 1"
_space_group_IT_number       1

loop_
  _space_group_symop_operation_xyz
  'x, y, z'

loop_
  _atom_site_type_symbol
  _atom_site_label
  _atom_site_symmetry_multiplicity
  _atom_site_fract_x
  _atom_site_fract_y
  _atom_site_fract_z
  _atom_site_occupancy
  Cd  Cd1       1.0  0.50000  0.50000  0.50000  1.0000
  Cd  Cd2       1.0  0.87060  0.38819  0.87060  1.0000
  Cd  Cd3       1.0  0.12940  0.12940  0.61181  1.0000
  Cd  Cd4       1.0  0.61181  0.12940  0.12940  1.0000
  Cd  Cd5       1.0  0.12940  0.12940  0.12940  1.0000
  Cd  Cd6       1.0  0.38819  0.87060  0.87060  1.0000
  Cd  Cd7       1.0  0.87060  0.87060  0.87060  1.0000
  Cd  Cd8       1.0  0.87060  0.87060  0.38819  1.0000
  Cd  Cd9       1.0  0.12940  0.61181  0.12940  1.0000
  F   F1        1.0  0.75000  0.75000  0.75000  1.0000
  F   F2        1.0  0.25000  0.25000  0.25000  1.0000
  F   F3        1.0  0.29303  0.29303  0.70697  1.0000
  F   F4        1.0  0.29303  0.70697  0.70697  1.0000
  F   F5        1.0  0.70697  0.29303  0.29303  1.0000
  F   F6        1.0  0.29303  0.70697  0.29303  1.0000
  F   F7        1.0  0.70697  0.29303  0.70697  1.0000
  F   F8        1.0  0.70697  0.70697  0.29303  1.0000
