data_image0
_chemical_formula_structural       F8Cd4
_chemical_formula_sum              "F8 Cd4"
_cell_length_a       3.79394
_cell_length_b       5.87772
_cell_length_c       8.09288
_cell_angle_alpha    75.013
_cell_angle_beta     90
_cell_angle_gamma    90

_space_group_name_H-M_alt    "P 1"
_space_group_IT_number       1

loop_
  _space_group_symop_operation_xyz
  'x, y, z'

loop_
  _atom_site_type_symbol
  _atom_site_label
  _atom_site_symmetry_multiplicity
  _atom_site_fract_x
  _atom_site_fract_y
  _atom_site_fract_z
  _atom_site_occupancy
  F   F1        1.0  0.25061  0.04421  0.37158  1.0000
  F   F2        1.0  0.75061  0.95579  0.12842  1.0000
  F   F3        1.0  0.74939  0.95579  0.62842  1.0000
  F   F4        1.0  0.24939  0.04421  0.87158  1.0000
  F   F5        1.0  0.74928  0.42748  0.62822  1.0000
  F   F6        1.0  0.24928  0.57252  0.87178  1.0000
  F   F7        1.0  0.25072  0.57252  0.37178  1.0000
  F   F8        1.0  0.75072  0.42748  0.12822  1.0000
  Cd  Cd1       1.0  0.25017  0.23246  0.08814  1.0000
  Cd  Cd2       1.0  0.75017  0.76754  0.41186  1.0000
  Cd  Cd3       1.0  0.74983  0.76754  0.91186  1.0000
  Cd  Cd4       1.0  0.24983  0.23246  0.58814  1.0000
