data_image0
_chemical_formula_structural       Cd2F2
_chemical_formula_sum              "Cd2 F2"
_cell_length_a       3.00459
_cell_length_b       4.33969
_cell_length_c       4.90674
_cell_angle_alpha    90
_cell_angle_beta     90
_cell_angle_gamma    90

_space_group_name_H-M_alt    "P 1"
_space_group_IT_number       1

loop_
  _space_group_symop_operation_xyz
  'x, y, z'

loop_
  _atom_site_type_symbol
  _atom_site_label
  _atom_site_symmetry_multiplicity
  _atom_site_fract_x
  _atom_site_fract_y
  _atom_site_fract_z
  _atom_site_occupancy
  Cd  Cd1       1.0  0.00000  0.75000  0.27461  1.0000
  Cd  Cd2       1.0  0.00000  0.25000  0.72539  1.0000
  F   F1        1.0  0.50000  0.75000  0.87178  1.0000
  F   F2        1.0  0.50000  0.25000  0.12822  1.0000
