data_image0
_chemical_formula_structural       Hg9Cd13
_chemical_formula_sum              "Hg9 Cd13"
_cell_length_a       10.2348
_cell_length_b       10.2348
_cell_length_c       5.97851
_cell_angle_alpha    90
_cell_angle_beta     90
_cell_angle_gamma    120

_space_group_name_H-M_alt    "P 1"
_space_group_IT_number       1

loop_
  _space_group_symop_operation_xyz
  'x, y, z'

loop_
  _atom_site_type_symbol
  _atom_site_label
  _atom_site_symmetry_multiplicity
  _atom_site_fract_x
  _atom_site_fract_y
  _atom_site_fract_z
  _atom_site_occupancy
  Hg  Hg1       1.0  0.00000  0.00000  0.50000  1.0000
  Hg  Hg2       1.0  0.33333  0.66667  0.74575  1.0000
  Hg  Hg3       1.0  0.66667  0.33333  0.25425  1.0000
  Hg  Hg4       1.0  0.19714  0.80286  0.24978  1.0000
  Hg  Hg5       1.0  0.19714  0.39427  0.24978  1.0000
  Hg  Hg6       1.0  0.60573  0.80286  0.24978  1.0000
  Hg  Hg7       1.0  0.39427  0.19714  0.75022  1.0000
  Hg  Hg8       1.0  0.80286  0.60573  0.75022  1.0000
  Hg  Hg9       1.0  0.80286  0.19714  0.75022  1.0000
  Cd  Cd1       1.0  0.00000  0.00000  0.00000  1.0000
  Cd  Cd2       1.0  0.50000  0.00000  0.00000  1.0000
  Cd  Cd3       1.0  0.00000  0.50000  0.00000  1.0000
  Cd  Cd4       1.0  0.50000  0.50000  0.00000  1.0000
  Cd  Cd5       1.0  0.50000  0.00000  0.50000  1.0000
  Cd  Cd6       1.0  0.00000  0.50000  0.50000  1.0000
  Cd  Cd7       1.0  0.50000  0.50000  0.50000  1.0000
  Cd  Cd8       1.0  0.15591  0.84409  0.75124  1.0000
  Cd  Cd9       1.0  0.15591  0.31181  0.75124  1.0000
  Cd  Cd10      1.0  0.68819  0.84409  0.75124  1.0000
  Cd  Cd11      1.0  0.31181  0.15591  0.24876  1.0000
  Cd  Cd12      1.0  0.84409  0.68819  0.24876  1.0000
  Cd  Cd13      1.0  0.84409  0.15591  0.24876  1.0000
