data_image0
_chemical_formula_structural       Cd4F12
_chemical_formula_sum              "Cd4 F12"
_cell_length_a       6.94432
_cell_length_b       6.94432
_cell_length_c       5.5393
_cell_angle_alpha    90
_cell_angle_beta     90
_cell_angle_gamma    132.764

_space_group_name_H-M_alt    "P 1"
_space_group_IT_number       1

loop_
  _space_group_symop_operation_xyz
  'x, y, z'

loop_
  _atom_site_type_symbol
  _atom_site_label
  _atom_site_symmetry_multiplicity
  _atom_site_fract_x
  _atom_site_fract_y
  _atom_site_fract_z
  _atom_site_occupancy
  Cd  Cd1       1.0  0.64527  0.35473  0.00000  1.0000
  Cd  Cd2       1.0  0.35473  0.64527  0.00000  1.0000
  Cd  Cd3       1.0  0.14527  0.85473  0.50000  1.0000
  Cd  Cd4       1.0  0.85473  0.14527  0.50000  1.0000
  F   F1        1.0  0.67529  0.67529  0.17218  1.0000
  F   F2        1.0  0.17529  0.17529  0.32782  1.0000
  F   F3        1.0  0.82471  0.82471  0.67218  1.0000
  F   F4        1.0  0.38752  0.61248  0.50000  1.0000
  F   F5        1.0  0.99728  0.49728  0.75000  1.0000
  F   F6        1.0  0.88752  0.11248  0.00000  1.0000
  F   F7        1.0  0.00272  0.50272  0.25000  1.0000
  F   F8        1.0  0.32471  0.32471  0.82782  1.0000
  F   F9        1.0  0.61248  0.38752  0.50000  1.0000
  F   F10       1.0  0.11248  0.88752  0.00000  1.0000
  F   F11       1.0  0.50272  0.00272  0.25000  1.0000
  F   F12       1.0  0.49728  0.99728  0.75000  1.0000
