data_image0
_chemical_formula_structural       Cl4Cd4
_chemical_formula_sum              "Cl4 Cd4"
_cell_length_a       5.81105
_cell_length_b       5.81105
_cell_length_c       5.81105
_cell_angle_alpha    90
_cell_angle_beta     90
_cell_angle_gamma    90

_space_group_name_H-M_alt    "P 1"
_space_group_IT_number       1

loop_
  _space_group_symop_operation_xyz
  'x, y, z'

loop_
  _atom_site_type_symbol
  _atom_site_label
  _atom_site_symmetry_multiplicity
  _atom_site_fract_x
  _atom_site_fract_y
  _atom_site_fract_z
  _atom_site_occupancy
  Cl  Cl1       1.0  0.84367  0.65633  0.34367  1.0000
  Cl  Cl2       1.0  0.65633  0.34367  0.84367  1.0000
  Cl  Cl3       1.0  0.34367  0.84367  0.65633  1.0000
  Cl  Cl4       1.0  0.15633  0.15633  0.15633  1.0000
  Cd  Cd1       1.0  0.15267  0.34733  0.65267  1.0000
  Cd  Cd2       1.0  0.34733  0.65267  0.15267  1.0000
  Cd  Cd3       1.0  0.65267  0.15267  0.34733  1.0000
  Cd  Cd4       1.0  0.84733  0.84733  0.84733  1.0000
