data_image0
_chemical_formula_structural       Cd4I8
_chemical_formula_sum              "Cd4 I8"
_cell_length_a       4.20774
_cell_length_b       11.3988
_cell_length_c       12.2438
_cell_angle_alpha    90
_cell_angle_beta     90
_cell_angle_gamma    90

_space_group_name_H-M_alt    "P 1"
_space_group_IT_number       1

loop_
  _space_group_symop_operation_xyz
  'x, y, z'

loop_
  _atom_site_type_symbol
  _atom_site_label
  _atom_site_symmetry_multiplicity
  _atom_site_fract_x
  _atom_site_fract_y
  _atom_site_fract_z
  _atom_site_occupancy
  Cd  Cd1       1.0  0.75000  0.84683  0.97683  1.0000
  Cd  Cd2       1.0  0.75000  0.34683  0.52317  1.0000
  Cd  Cd3       1.0  0.25000  0.15317  0.02317  1.0000
  Cd  Cd4       1.0  0.25000  0.65317  0.47683  1.0000
  I   I1        1.0  0.75000  0.51290  0.34290  1.0000
  I   I2        1.0  0.75000  0.01290  0.15710  1.0000
  I   I3        1.0  0.25000  0.48710  0.65710  1.0000
  I   I4        1.0  0.25000  0.98710  0.84290  1.0000
  I   I5        1.0  0.75000  0.32148  0.98965  1.0000
  I   I6        1.0  0.75000  0.82148  0.51035  1.0000
  I   I7        1.0  0.25000  0.67852  0.01035  1.0000
  I   I8        1.0  0.25000  0.17852  0.48965  1.0000
