data_image0
_chemical_formula_structural       Cd8I16
_chemical_formula_sum              "Cd8 I16"
_cell_length_a       4.31014
_cell_length_b       10.1842
_cell_length_c       25.7037
_cell_angle_alpha    90
_cell_angle_beta     90
_cell_angle_gamma    90

_space_group_name_H-M_alt    "P 1"
_space_group_IT_number       1

loop_
  _space_group_symop_operation_xyz
  'x, y, z'

loop_
  _atom_site_type_symbol
  _atom_site_label
  _atom_site_symmetry_multiplicity
  _atom_site_fract_x
  _atom_site_fract_y
  _atom_site_fract_z
  _atom_site_occupancy
  Cd  Cd1       1.0  0.37441  0.84885  0.16740  1.0000
  Cd  Cd2       1.0  0.12559  0.65115  0.66740  1.0000
  Cd  Cd3       1.0  0.12559  0.34885  0.83260  1.0000
  Cd  Cd4       1.0  0.37441  0.15115  0.33260  1.0000
  Cd  Cd5       1.0  0.62559  0.15115  0.83260  1.0000
  Cd  Cd6       1.0  0.87441  0.34885  0.33260  1.0000
  Cd  Cd7       1.0  0.87441  0.65115  0.16740  1.0000
  Cd  Cd8       1.0  0.62559  0.84885  0.66740  1.0000
  I   I1        1.0  0.17890  0.50000  0.25000  1.0000
  I   I2        1.0  0.32110  0.00000  0.75000  1.0000
  I   I3        1.0  0.82110  0.50000  0.75000  1.0000
  I   I4        1.0  0.67890  0.00000  0.25000  1.0000
  I   I5        1.0  0.22426  0.92794  0.39632  1.0000
  I   I6        1.0  0.27574  0.57206  0.89632  1.0000
  I   I7        1.0  0.27574  0.42794  0.60368  1.0000
  I   I8        1.0  0.22426  0.07206  0.10368  1.0000
  I   I9        1.0  0.77574  0.07206  0.60368  1.0000
  I   I10       1.0  0.72426  0.42794  0.10368  1.0000
  I   I11       1.0  0.72426  0.57206  0.39632  1.0000
  I   I12       1.0  0.77574  0.92794  0.89632  1.0000
  I   I13       1.0  0.50000  0.50000  0.00000  1.0000
  I   I14       1.0  0.00000  0.00000  0.50000  1.0000
  I   I15       1.0  0.00000  0.00000  0.00000  1.0000
  I   I16       1.0  0.50000  0.50000  0.50000  1.0000
