data_image0
_chemical_formula_structural       Cd2Hg6
_chemical_formula_sum              "Cd2 Hg6"
_cell_length_a       6.83898
_cell_length_b       6.83898
_cell_length_c       6.83898
_cell_angle_alpha    123.961
_cell_angle_beta     123.961
_cell_angle_gamma    83.2656

_space_group_name_H-M_alt    "P 1"
_space_group_IT_number       1

loop_
  _space_group_symop_operation_xyz
  'x, y, z'

loop_
  _atom_site_type_symbol
  _atom_site_label
  _atom_site_symmetry_multiplicity
  _atom_site_fract_x
  _atom_site_fract_y
  _atom_site_fract_z
  _atom_site_occupancy
  Cd  Cd1       1.0  0.75000  0.25000  0.50000  1.0000
  Cd  Cd2       1.0  0.25000  0.75000  0.50000  1.0000
  Hg  Hg1       1.0  0.75000  0.75000  1.00000  1.0000
  Hg  Hg2       1.0  0.25000  0.25000  0.00000  1.0000
  Hg  Hg3       1.0  0.20796  0.70796  0.91591  1.0000
  Hg  Hg4       1.0  0.79204  0.29204  0.08409  1.0000
  Hg  Hg5       1.0  0.70796  0.79204  0.50000  1.0000
  Hg  Hg6       1.0  0.29204  0.20796  0.50000  1.0000
