data_image0
_chemical_formula_structural       CdHg3
_chemical_formula_sum              "Cd1 Hg3"
_cell_length_a       10.7817
_cell_length_b       10.7817
_cell_length_c       10.7817
_cell_angle_alpha    17.8133
_cell_angle_beta     17.8133
_cell_angle_gamma    17.8133

_space_group_name_H-M_alt    "P 1"
_space_group_IT_number       1

loop_
  _space_group_symop_operation_xyz
  'x, y, z'

loop_
  _atom_site_type_symbol
  _atom_site_label
  _atom_site_symmetry_multiplicity
  _atom_site_fract_x
  _atom_site_fract_y
  _atom_site_fract_z
  _atom_site_occupancy
  Cd  Cd1       1.0  0.00000  0.00000  0.00000  1.0000
  Hg  Hg1       1.0  0.25106  0.25106  0.25106  1.0000
  Hg  Hg2       1.0  0.50000  0.50000  0.50000  1.0000
  Hg  Hg3       1.0  0.74894  0.74894  0.74894  1.0000
