data_image0
_chemical_formula_structural       Cd2I3
_chemical_formula_sum              "Cd2 I3"
_cell_length_a       11.2515
_cell_length_b       11.2515
_cell_length_c       11.2515
_cell_angle_alpha    22.7446
_cell_angle_beta     22.7446
_cell_angle_gamma    22.7446

_space_group_name_H-M_alt    "P 1"
_space_group_IT_number       1

loop_
  _space_group_symop_operation_xyz
  'x, y, z'

loop_
  _atom_site_type_symbol
  _atom_site_label
  _atom_site_symmetry_multiplicity
  _atom_site_fract_x
  _atom_site_fract_y
  _atom_site_fract_z
  _atom_site_occupancy
  Cd  Cd1       1.0  0.60652  0.60652  0.60652  1.0000
  Cd  Cd2       1.0  0.39348  0.39348  0.39348  1.0000
  I   I1        1.0  0.00000  0.00000  0.00000  1.0000
  I   I2        1.0  0.22383  0.22383  0.22383  1.0000
  I   I3        1.0  0.77617  0.77617  0.77617  1.0000
