data_image0
_chemical_formula_structural       CdI2
_chemical_formula_sum              "Cd1 I2"
_cell_length_a       4.31612
_cell_length_b       4.31612
_cell_length_c       7.47446
_cell_angle_alpha    90.2669
_cell_angle_beta     90.2669
_cell_angle_gamma    60.3106

_space_group_name_H-M_alt    "P 1"
_space_group_IT_number       1

loop_
  _space_group_symop_operation_xyz
  'x, y, z'

loop_
  _atom_site_type_symbol
  _atom_site_label
  _atom_site_symmetry_multiplicity
  _atom_site_fract_x
  _atom_site_fract_y
  _atom_site_fract_z
  _atom_site_occupancy
  Cd  Cd1       1.0  0.66425  0.33575  0.50000  1.0000
  I   I1        1.0  0.33710  0.00135  0.73142  1.0000
  I   I2        1.0  0.99865  0.66290  0.26858  1.0000
