data_image0
_chemical_formula_structural       CdI2
_chemical_formula_sum              "Cd1 I2"
_cell_length_a       7.94719
_cell_length_b       7.94719
_cell_length_c       7.94719
_cell_angle_alpha    151.899
_cell_angle_beta     151.899
_cell_angle_gamma    40.1609

_space_group_name_H-M_alt    "P 1"
_space_group_IT_number       1

loop_
  _space_group_symop_operation_xyz
  'x, y, z'

loop_
  _atom_site_type_symbol
  _atom_site_label
  _atom_site_symmetry_multiplicity
  _atom_site_fract_x
  _atom_site_fract_y
  _atom_site_fract_z
  _atom_site_occupancy
  Cd  Cd1       1.0  0.00000  0.00000  0.00000  1.0000
  I   I1        1.0  0.62390  0.62390  0.00000  1.0000
  I   I2        1.0  0.37610  0.37610  0.00000  1.0000
