data_image0
_chemical_formula_structural       I10Cd4
_chemical_formula_sum              "I10 Cd4"
_cell_length_a       13.9245
_cell_length_b       13.9245
_cell_length_c       9.13558
_cell_angle_alpha    41.5118
_cell_angle_beta     41.5118
_cell_angle_gamma    47.8202

_space_group_name_H-M_alt    "P 1"
_space_group_IT_number       1

loop_
  _space_group_symop_operation_xyz
  'x, y, z'

loop_
  _atom_site_type_symbol
  _atom_site_label
  _atom_site_symmetry_multiplicity
  _atom_site_fract_x
  _atom_site_fract_y
  _atom_site_fract_z
  _atom_site_occupancy
  I   I1        1.0  0.32044  0.67956  0.00000  1.0000
  I   I2        1.0  0.67956  0.32044  0.00000  1.0000
  I   I3        1.0  0.58901  0.58901  0.34265  1.0000
  I   I4        1.0  0.41099  0.41099  0.65735  1.0000
  I   I5        1.0  0.06703  0.06703  0.55408  1.0000
  I   I6        1.0  0.93297  0.93297  0.44592  1.0000
  I   I7        1.0  0.41993  0.05410  0.77750  1.0000
  I   I8        1.0  0.94590  0.58007  0.22250  1.0000
  I   I9        1.0  0.05410  0.41993  0.77750  1.0000
  I   I10       1.0  0.58007  0.94590  0.22250  1.0000
  Cd  Cd1       1.0  0.11475  0.11475  0.13992  1.0000
  Cd  Cd2       1.0  0.88525  0.88525  0.86008  1.0000
  Cd  Cd3       1.0  0.62352  0.62352  0.60861  1.0000
  Cd  Cd4       1.0  0.37648  0.37648  0.39139  1.0000
