data_image0
_chemical_formula_structural       Hg10Cd6
_chemical_formula_sum              "Hg10 Cd6"
_cell_length_a       8.5297
_cell_length_b       8.5297
_cell_length_c       8.5297
_cell_angle_alpha    123.151
_cell_angle_beta     123.151
_cell_angle_gamma    84.6239

_space_group_name_H-M_alt    "P 1"
_space_group_IT_number       1

loop_
  _space_group_symop_operation_xyz
  'x, y, z'

loop_
  _atom_site_type_symbol
  _atom_site_label
  _atom_site_symmetry_multiplicity
  _atom_site_fract_x
  _atom_site_fract_y
  _atom_site_fract_z
  _atom_site_occupancy
  Hg  Hg1       1.0  0.48797  0.68678  0.50000  1.0000
  Hg  Hg2       1.0  0.51203  0.31322  0.50000  1.0000
  Hg  Hg3       1.0  0.50000  0.50000  0.00000  1.0000
  Hg  Hg4       1.0  0.00000  0.00000  0.00000  1.0000
  Hg  Hg5       1.0  0.18678  0.98797  0.50000  1.0000
  Hg  Hg6       1.0  0.98797  0.48797  0.80118  1.0000
  Hg  Hg7       1.0  0.68678  0.18678  0.19882  1.0000
  Hg  Hg8       1.0  0.31322  0.81322  0.80118  1.0000
  Hg  Hg9       1.0  0.01203  0.51203  0.19882  1.0000
  Hg  Hg10      1.0  0.81322  0.01203  0.50000  1.0000
  Cd  Cd1       1.0  0.85370  0.64630  0.50000  1.0000
  Cd  Cd2       1.0  0.64630  0.14630  0.79260  1.0000
  Cd  Cd3       1.0  0.35370  0.85370  0.20740  1.0000
  Cd  Cd4       1.0  0.14630  0.35370  0.50000  1.0000
  Cd  Cd5       1.0  0.25000  0.25000  0.00000  1.0000
  Cd  Cd6       1.0  0.75000  0.75000  0.00000  1.0000
