data_image0
_chemical_formula_structural       Cd2I4
_chemical_formula_sum              "Cd2 I4"
_cell_length_a       6.42823
_cell_length_b       6.42823
_cell_length_c       6.42823
_cell_angle_alpha    109.971
_cell_angle_beta     109.971
_cell_angle_gamma    108.476

_space_group_name_H-M_alt    "P 1"
_space_group_IT_number       1

loop_
  _space_group_symop_operation_xyz
  'x, y, z'

loop_
  _atom_site_type_symbol
  _atom_site_label
  _atom_site_symmetry_multiplicity
  _atom_site_fract_x
  _atom_site_fract_y
  _atom_site_fract_z
  _atom_site_occupancy
  Cd  Cd1       1.0  0.25000  0.25000  0.00000  1.0000
  Cd  Cd2       1.0  0.75000  0.75000  0.00000  1.0000
  I   I1        1.0  0.68392  0.18392  0.86783  1.0000
  I   I2        1.0  0.31608  0.81608  0.13217  1.0000
  I   I3        1.0  0.81608  0.68392  0.50000  1.0000
  I   I4        1.0  0.18392  0.31608  0.50000  1.0000
