data_image0
_chemical_formula_structural       Cd2Hg2
_chemical_formula_sum              "Cd2 Hg2"
_cell_length_a       4.8134
_cell_length_b       4.8134
_cell_length_c       7.74496
_cell_angle_alpha    90
_cell_angle_beta     90
_cell_angle_gamma    120

_space_group_name_H-M_alt    "P 1"
_space_group_IT_number       1

loop_
  _space_group_symop_operation_xyz
  'x, y, z'

loop_
  _atom_site_type_symbol
  _atom_site_label
  _atom_site_symmetry_multiplicity
  _atom_site_fract_x
  _atom_site_fract_y
  _atom_site_fract_z
  _atom_site_occupancy
  Cd  Cd1       1.0  0.66667  0.33333  0.50043  1.0000
  Cd  Cd2       1.0  0.33333  0.66667  0.00043  1.0000
  Hg  Hg1       1.0  0.66667  0.33333  0.87957  1.0000
  Hg  Hg2       1.0  0.33333  0.66667  0.37957  1.0000
