data_image0
_chemical_formula_structural       Hg12Cd8
_chemical_formula_sum              "Hg12 Cd8"
_cell_length_a       6.37855
_cell_length_b       8.2451
_cell_length_c       10.3239
_cell_angle_alpha    90
_cell_angle_beta     90
_cell_angle_gamma    90

_space_group_name_H-M_alt    "P 1"
_space_group_IT_number       1

loop_
  _space_group_symop_operation_xyz
  'x, y, z'

loop_
  _atom_site_type_symbol
  _atom_site_label
  _atom_site_symmetry_multiplicity
  _atom_site_fract_x
  _atom_site_fract_y
  _atom_site_fract_z
  _atom_site_occupancy
  Hg  Hg1       1.0  0.25000  0.92433  0.36648  1.0000
  Hg  Hg2       1.0  0.75000  0.07567  0.63352  1.0000
  Hg  Hg3       1.0  0.50528  0.25091  0.37043  1.0000
  Hg  Hg4       1.0  0.00528  0.74909  0.62957  1.0000
  Hg  Hg5       1.0  0.49472  0.24909  0.87043  1.0000
  Hg  Hg6       1.0  0.00528  0.24909  0.87043  1.0000
  Hg  Hg7       1.0  0.49472  0.74909  0.62957  1.0000
  Hg  Hg8       1.0  0.99472  0.25091  0.37043  1.0000
  Hg  Hg9       1.0  0.50528  0.75091  0.12957  1.0000
  Hg  Hg10      1.0  0.25000  0.42433  0.13352  1.0000
  Hg  Hg11      1.0  0.99472  0.75091  0.12957  1.0000
  Hg  Hg12      1.0  0.75000  0.57567  0.86648  1.0000
  Cd  Cd1       1.0  0.25000  0.56259  0.41856  1.0000
  Cd  Cd2       1.0  0.25000  0.10117  0.63835  1.0000
  Cd  Cd3       1.0  0.75000  0.89883  0.36165  1.0000
  Cd  Cd4       1.0  0.75000  0.39883  0.13835  1.0000
  Cd  Cd5       1.0  0.25000  0.60117  0.86165  1.0000
  Cd  Cd6       1.0  0.25000  0.06259  0.08144  1.0000
  Cd  Cd7       1.0  0.75000  0.43741  0.58144  1.0000
  Cd  Cd8       1.0  0.75000  0.93741  0.91856  1.0000
