data_image0
_chemical_formula_structural       Cd3N4
_chemical_formula_sum              "Cd3 N4"
_cell_length_a       5.95953
_cell_length_b       5.95953
_cell_length_c       5.99784
_cell_angle_alpha    62.542
_cell_angle_beta     62.542
_cell_angle_gamma    32.7563

_space_group_name_H-M_alt    "P 1"
_space_group_IT_number       1

loop_
  _space_group_symop_operation_xyz
  'x, y, z'

loop_
  _atom_site_type_symbol
  _atom_site_label
  _atom_site_symmetry_multiplicity
  _atom_site_fract_x
  _atom_site_fract_y
  _atom_site_fract_z
  _atom_site_occupancy
  Cd  Cd1       1.0  0.19636  0.19636  0.80120  1.0000
  Cd  Cd2       1.0  0.80364  0.80364  0.19880  1.0000
  Cd  Cd3       1.0  0.50000  0.50000  0.50000  1.0000
  N   N1        1.0  0.84889  0.84889  0.52866  1.0000
  N   N2        1.0  0.15111  0.15111  0.47134  1.0000
  N   N3        1.0  0.38527  0.38527  0.92274  1.0000
  N   N4        1.0  0.61473  0.61473  0.07726  1.0000
