data_image0
_chemical_formula_structural       Cd4N8
_chemical_formula_sum              "Cd4 N8"
_cell_length_a       7.02397
_cell_length_b       7.02397
_cell_length_c       7.14083
_cell_angle_alpha    90
_cell_angle_beta     90
_cell_angle_gamma    143.97

_space_group_name_H-M_alt    "P 1"
_space_group_IT_number       1

loop_
  _space_group_symop_operation_xyz
  'x, y, z'

loop_
  _atom_site_type_symbol
  _atom_site_label
  _atom_site_symmetry_multiplicity
  _atom_site_fract_x
  _atom_site_fract_y
  _atom_site_fract_z
  _atom_site_occupancy
  Cd  Cd1       1.0  0.10277  0.89723  0.26494  1.0000
  Cd  Cd2       1.0  0.89723  0.10277  0.76494  1.0000
  Cd  Cd3       1.0  0.47986  0.52014  0.48298  1.0000
  Cd  Cd4       1.0  0.52014  0.47986  0.98298  1.0000
  N   N1        1.0  0.80138  0.19862  0.09181  1.0000
  N   N2        1.0  0.19862  0.80138  0.59181  1.0000
  N   N3        1.0  0.41147  0.58853  0.75793  1.0000
  N   N4        1.0  0.58853  0.41147  0.25793  1.0000
  N   N5        1.0  0.20678  0.79322  0.74821  1.0000
  N   N6        1.0  0.79322  0.20678  0.24821  1.0000
  N   N7        1.0  0.96476  0.03524  0.46844  1.0000
  N   N8        1.0  0.03524  0.96476  0.96844  1.0000
