data_image0
_chemical_formula_structural       Cd10Hg6
_chemical_formula_sum              "Cd10 Hg6"
_cell_length_a       8.8339
_cell_length_b       8.8339
_cell_length_c       8.8339
_cell_angle_alpha    95.8335
_cell_angle_beta     95.8335
_cell_angle_gamma    142.818

_space_group_name_H-M_alt    "P 1"
_space_group_IT_number       1

loop_
  _space_group_symop_operation_xyz
  'x, y, z'

loop_
  _atom_site_type_symbol
  _atom_site_label
  _atom_site_symmetry_multiplicity
  _atom_site_fract_x
  _atom_site_fract_y
  _atom_site_fract_z
  _atom_site_occupancy
  Cd  Cd1       1.0  0.57168  0.26657  0.83826  1.0000
  Cd  Cd2       1.0  0.42832  0.73343  0.16174  1.0000
  Cd  Cd3       1.0  0.73343  0.57168  0.30511  1.0000
  Cd  Cd4       1.0  0.26657  0.42832  0.69489  1.0000
  Cd  Cd5       1.0  0.92832  0.76657  0.69489  1.0000
  Cd  Cd6       1.0  0.23343  0.92832  0.16174  1.0000
  Cd  Cd7       1.0  0.25000  0.75000  0.50000  1.0000
  Cd  Cd8       1.0  0.75000  0.25000  0.50000  1.0000
  Cd  Cd9       1.0  0.07168  0.23343  0.30511  1.0000
  Cd  Cd10      1.0  0.76657  0.07168  0.83826  1.0000
  Hg  Hg1       1.0  0.82634  0.32634  0.15267  1.0000
  Hg  Hg2       1.0  0.67366  0.82634  0.50000  1.0000
  Hg  Hg3       1.0  0.32634  0.17366  0.50000  1.0000
  Hg  Hg4       1.0  0.17366  0.67366  0.84733  1.0000
  Hg  Hg5       1.0  0.75000  0.75000  0.00000  1.0000
  Hg  Hg6       1.0  0.25000  0.25000  0.00000  1.0000
