data_image0
_chemical_formula_structural       I9Cd13
_chemical_formula_sum              "I9 Cd13"
_cell_length_a       9.95063
_cell_length_b       9.95063
_cell_length_c       9.488
_cell_angle_alpha    90
_cell_angle_beta     90
_cell_angle_gamma    120

_space_group_name_H-M_alt    "P 1"
_space_group_IT_number       1

loop_
  _space_group_symop_operation_xyz
  'x, y, z'

loop_
  _atom_site_type_symbol
  _atom_site_label
  _atom_site_symmetry_multiplicity
  _atom_site_fract_x
  _atom_site_fract_y
  _atom_site_fract_z
  _atom_site_occupancy
  I   I1        1.0  0.00000  0.00000  0.50000  1.0000
  I   I2        1.0  0.33333  0.66667  0.84208  1.0000
  I   I3        1.0  0.66667  0.33333  0.15792  1.0000
  I   I4        1.0  0.16749  0.83251  0.15738  1.0000
  I   I5        1.0  0.16749  0.33498  0.15738  1.0000
  I   I6        1.0  0.66502  0.83251  0.15738  1.0000
  I   I7        1.0  0.33498  0.16749  0.84262  1.0000
  I   I8        1.0  0.83251  0.66502  0.84262  1.0000
  I   I9        1.0  0.83251  0.16749  0.84262  1.0000
  Cd  Cd1       1.0  0.00000  0.00000  0.00000  1.0000
  Cd  Cd2       1.0  0.50000  0.00000  0.00000  1.0000
  Cd  Cd3       1.0  0.00000  0.50000  0.00000  1.0000
  Cd  Cd4       1.0  0.50000  0.50000  0.00000  1.0000
  Cd  Cd5       1.0  0.50000  0.00000  0.50000  1.0000
  Cd  Cd6       1.0  0.00000  0.50000  0.50000  1.0000
  Cd  Cd7       1.0  0.50000  0.50000  0.50000  1.0000
  Cd  Cd8       1.0  0.18252  0.81748  0.53724  1.0000
  Cd  Cd9       1.0  0.18252  0.36504  0.53724  1.0000
  Cd  Cd10      1.0  0.63496  0.81748  0.53724  1.0000
  Cd  Cd11      1.0  0.36504  0.18252  0.46276  1.0000
  Cd  Cd12      1.0  0.81748  0.63496  0.46276  1.0000
  Cd  Cd13      1.0  0.81748  0.18252  0.46276  1.0000
