data_image0
_chemical_formula_structural       Cd8Hg8
_chemical_formula_sum              "Cd8 Hg8"
_cell_length_a       6.91512
_cell_length_b       6.91512
_cell_length_c       8.70642
_cell_angle_alpha    90
_cell_angle_beta     90
_cell_angle_gamma    90

_space_group_name_H-M_alt    "P 1"
_space_group_IT_number       1

loop_
  _space_group_symop_operation_xyz
  'x, y, z'

loop_
  _atom_site_type_symbol
  _atom_site_label
  _atom_site_symmetry_multiplicity
  _atom_site_fract_x
  _atom_site_fract_y
  _atom_site_fract_z
  _atom_site_occupancy
  Cd  Cd1       1.0  0.72861  0.85023  0.00000  1.0000
  Cd  Cd2       1.0  0.14977  0.72861  0.50000  1.0000
  Cd  Cd3       1.0  0.85023  0.27139  0.50000  1.0000
  Cd  Cd4       1.0  0.27139  0.14977  0.00000  1.0000
  Cd  Cd5       1.0  0.50000  0.00000  0.50000  1.0000
  Cd  Cd6       1.0  0.00000  0.50000  0.00000  1.0000
  Cd  Cd7       1.0  0.00000  0.00000  0.75000  1.0000
  Cd  Cd8       1.0  0.00000  0.00000  0.25000  1.0000
  Hg  Hg1       1.0  0.24474  0.35763  0.68194  1.0000
  Hg  Hg2       1.0  0.64237  0.24474  0.18194  1.0000
  Hg  Hg3       1.0  0.35763  0.75526  0.18194  1.0000
  Hg  Hg4       1.0  0.75526  0.64237  0.68194  1.0000
  Hg  Hg5       1.0  0.75526  0.64237  0.31806  1.0000
  Hg  Hg6       1.0  0.35763  0.75526  0.81806  1.0000
  Hg  Hg7       1.0  0.64237  0.24474  0.81806  1.0000
  Hg  Hg8       1.0  0.24474  0.35763  0.31806  1.0000
