data_image0
_chemical_formula_structural       Hg4Cd4
_chemical_formula_sum              "Hg4 Cd4"
_cell_length_a       5.85282
_cell_length_b       5.85282
_cell_length_c       5.85282
_cell_angle_alpha    90
_cell_angle_beta     90
_cell_angle_gamma    90

_space_group_name_H-M_alt    "P 1"
_space_group_IT_number       1

loop_
  _space_group_symop_operation_xyz
  'x, y, z'

loop_
  _atom_site_type_symbol
  _atom_site_label
  _atom_site_symmetry_multiplicity
  _atom_site_fract_x
  _atom_site_fract_y
  _atom_site_fract_z
  _atom_site_occupancy
  Hg  Hg1       1.0  0.84194  0.65806  0.34194  1.0000
  Hg  Hg2       1.0  0.65806  0.34194  0.84194  1.0000
  Hg  Hg3       1.0  0.34194  0.84194  0.65806  1.0000
  Hg  Hg4       1.0  0.15806  0.15806  0.15806  1.0000
  Cd  Cd1       1.0  0.15413  0.34587  0.65413  1.0000
  Cd  Cd2       1.0  0.34587  0.65413  0.15413  1.0000
  Cd  Cd3       1.0  0.65413  0.15413  0.34587  1.0000
  Cd  Cd4       1.0  0.84587  0.84587  0.84587  1.0000
