data_image0
_chemical_formula_structural       Cd3I4
_chemical_formula_sum              "Cd3 I4"
_cell_length_a       11.1073
_cell_length_b       11.1073
_cell_length_c       7.50428
_cell_angle_alpha    70.3779
_cell_angle_beta     70.3779
_cell_angle_gamma    22.5322

_space_group_name_H-M_alt    "P 1"
_space_group_IT_number       1

loop_
  _space_group_symop_operation_xyz
  'x, y, z'

loop_
  _atom_site_type_symbol
  _atom_site_label
  _atom_site_symmetry_multiplicity
  _atom_site_fract_x
  _atom_site_fract_y
  _atom_site_fract_z
  _atom_site_occupancy
  Cd  Cd1       1.0  0.25084  0.25084  0.74894  1.0000
  Cd  Cd2       1.0  0.74916  0.74916  0.25106  1.0000
  Cd  Cd3       1.0  0.50000  0.50000  0.50000  1.0000
  I   I1        1.0  0.83465  0.83465  0.49790  1.0000
  I   I2        1.0  0.16535  0.16535  0.50210  1.0000
  I   I3        1.0  0.33374  0.33374  0.00145  1.0000
  I   I4        1.0  0.66626  0.66626  0.99855  1.0000
