data_image0
_chemical_formula_structural       I10Cd6
_chemical_formula_sum              "I10 Cd6"
_cell_length_a       9.29491
_cell_length_b       9.29491
_cell_length_c       9.29491
_cell_angle_alpha    123.564
_cell_angle_beta     123.564
_cell_angle_gamma    83.931

_space_group_name_H-M_alt    "P 1"
_space_group_IT_number       1

loop_
  _space_group_symop_operation_xyz
  'x, y, z'

loop_
  _atom_site_type_symbol
  _atom_site_label
  _atom_site_symmetry_multiplicity
  _atom_site_fract_x
  _atom_site_fract_y
  _atom_site_fract_z
  _atom_site_occupancy
  I   I1        1.0  0.51257  0.70616  0.50000  1.0000
  I   I2        1.0  0.48743  0.29384  0.50000  1.0000
  I   I3        1.0  0.50000  0.50000  0.00000  1.0000
  I   I4        1.0  0.00000  0.00000  0.00000  1.0000
  I   I5        1.0  0.20616  0.01257  0.50000  1.0000
  I   I6        1.0  0.01257  0.51257  0.80641  1.0000
  I   I7        1.0  0.70616  0.20616  0.19359  1.0000
  I   I8        1.0  0.29384  0.79384  0.80641  1.0000
  I   I9        1.0  0.98743  0.48743  0.19359  1.0000
  I   I10       1.0  0.79384  0.98743  0.50000  1.0000
  Cd  Cd1       1.0  0.84037  0.65963  0.50000  1.0000
  Cd  Cd2       1.0  0.65963  0.15963  0.81925  1.0000
  Cd  Cd3       1.0  0.34037  0.84037  0.18075  1.0000
  Cd  Cd4       1.0  0.15963  0.34037  0.50000  1.0000
  Cd  Cd5       1.0  0.25000  0.25000  0.00000  1.0000
  Cd  Cd6       1.0  0.75000  0.75000  0.00000  1.0000
