data_image0
_chemical_formula_structural       Cd10I6
_chemical_formula_sum              "Cd10 I6"
_cell_length_a       9.25866
_cell_length_b       9.25866
_cell_length_c       9.25866
_cell_angle_alpha    99.9706
_cell_angle_beta     99.9706
_cell_angle_gamma    130.822

_space_group_name_H-M_alt    "P 1"
_space_group_IT_number       1

loop_
  _space_group_symop_operation_xyz
  'x, y, z'

loop_
  _atom_site_type_symbol
  _atom_site_label
  _atom_site_symmetry_multiplicity
  _atom_site_fract_x
  _atom_site_fract_y
  _atom_site_fract_z
  _atom_site_occupancy
  Cd  Cd1       1.0  0.50039  0.21318  0.71357  1.0000
  Cd  Cd2       1.0  0.49961  0.78682  0.28643  1.0000
  Cd  Cd3       1.0  0.78682  0.50039  0.28721  1.0000
  Cd  Cd4       1.0  0.21318  0.49961  0.71279  1.0000
  Cd  Cd5       1.0  0.99961  0.71318  0.71279  1.0000
  Cd  Cd6       1.0  0.28682  0.99961  0.28643  1.0000
  Cd  Cd7       1.0  0.25000  0.75000  0.50000  1.0000
  Cd  Cd8       1.0  0.75000  0.25000  0.50000  1.0000
  Cd  Cd9       1.0  0.00039  0.28682  0.28721  1.0000
  Cd  Cd10      1.0  0.71318  0.00039  0.71357  1.0000
  I   I1        1.0  0.75058  0.25058  0.00115  1.0000
  I   I2        1.0  0.74942  0.75058  0.50000  1.0000
  I   I3        1.0  0.25058  0.24942  0.50000  1.0000
  I   I4        1.0  0.24942  0.74942  0.99885  1.0000
  I   I5        1.0  0.75000  0.75000  0.00000  1.0000
  I   I6        1.0  0.25000  0.25000  0.00000  1.0000
