data_image0
_chemical_formula_structural       N6Cd2
_chemical_formula_sum              "N6 Cd2"
_cell_length_a       4.46248
_cell_length_b       5.07886
_cell_length_c       4.8916
_cell_angle_alpha    90
_cell_angle_beta     90
_cell_angle_gamma    90

_space_group_name_H-M_alt    "P 1"
_space_group_IT_number       1

loop_
  _space_group_symop_operation_xyz
  'x, y, z'

loop_
  _atom_site_type_symbol
  _atom_site_label
  _atom_site_symmetry_multiplicity
  _atom_site_fract_x
  _atom_site_fract_y
  _atom_site_fract_z
  _atom_site_occupancy
  N   N1        1.0  0.00000  0.48577  0.37083  1.0000
  N   N2        1.0  0.00000  0.48577  0.62917  1.0000
  N   N3        1.0  0.50000  0.51423  0.12917  1.0000
  N   N4        1.0  0.50000  0.51423  0.87083  1.0000
  N   N5        1.0  0.00000  0.75990  0.50000  1.0000
  N   N6        1.0  0.50000  0.24010  0.00000  1.0000
  Cd  Cd1       1.0  0.00000  0.10793  0.00000  1.0000
  Cd  Cd2       1.0  0.50000  0.89207  0.50000  1.0000
