data_image0
_chemical_formula_structural       Cd3S4
_chemical_formula_sum              "Cd3 S4"
_cell_length_a       7.33759
_cell_length_b       7.33759
_cell_length_c       6.67265
_cell_angle_alpha    62.576
_cell_angle_beta     62.576
_cell_angle_gamma    30.6325

_space_group_name_H-M_alt    "P 1"
_space_group_IT_number       1

loop_
  _space_group_symop_operation_xyz
  'x, y, z'

loop_
  _atom_site_type_symbol
  _atom_site_label
  _atom_site_symmetry_multiplicity
  _atom_site_fract_x
  _atom_site_fract_y
  _atom_site_fract_z
  _atom_site_occupancy
  Cd  Cd1       1.0  0.00000  0.00000  0.00000  1.0000
  Cd  Cd2       1.0  0.31112  0.31112  0.74619  1.0000
  Cd  Cd3       1.0  0.68888  0.68888  0.25381  1.0000
  S   S1        1.0  0.06589  0.06589  0.53046  1.0000
  S   S2        1.0  0.93411  0.93411  0.46954  1.0000
  S   S3        1.0  0.65235  0.65235  0.90932  1.0000
  S   S4        1.0  0.34765  0.34765  0.09068  1.0000
