data_image0
_chemical_formula_structural       N8Cd4
_chemical_formula_sum              "N8 Cd4"
_cell_length_a       4.84889
_cell_length_b       7.15811
_cell_length_c       6.82372
_cell_angle_alpha    65.4939
_cell_angle_beta     90
_cell_angle_gamma    90

_space_group_name_H-M_alt    "P 1"
_space_group_IT_number       1

loop_
  _space_group_symop_operation_xyz
  'x, y, z'

loop_
  _atom_site_type_symbol
  _atom_site_label
  _atom_site_symmetry_multiplicity
  _atom_site_fract_x
  _atom_site_fract_y
  _atom_site_fract_z
  _atom_site_occupancy
  N   N1        1.0  0.09077  0.02126  0.44011  1.0000
  N   N2        1.0  0.59077  0.97874  0.05989  1.0000
  N   N3        1.0  0.90923  0.97874  0.55989  1.0000
  N   N4        1.0  0.40923  0.02126  0.94011  1.0000
  N   N5        1.0  0.00581  0.41183  0.54236  1.0000
  N   N6        1.0  0.50581  0.58817  0.95764  1.0000
  N   N7        1.0  0.99419  0.58817  0.45764  1.0000
  N   N8        1.0  0.49419  0.41183  0.04236  1.0000
  Cd  Cd1       1.0  0.00174  0.26550  0.00780  1.0000
  Cd  Cd2       1.0  0.50174  0.73450  0.49220  1.0000
  Cd  Cd3       1.0  0.99826  0.73450  0.99220  1.0000
  Cd  Cd4       1.0  0.49826  0.26550  0.50780  1.0000
