data_image0
_chemical_formula_structural       S4Cd2
_chemical_formula_sum              "S4 Cd2"
_cell_length_a       5.42055
_cell_length_b       5.42055
_cell_length_c       5.42055
_cell_angle_alpha    114.777
_cell_angle_beta     114.777
_cell_angle_gamma    99.3132

_space_group_name_H-M_alt    "P 1"
_space_group_IT_number       1

loop_
  _space_group_symop_operation_xyz
  'x, y, z'

loop_
  _atom_site_type_symbol
  _atom_site_label
  _atom_site_symmetry_multiplicity
  _atom_site_fract_x
  _atom_site_fract_y
  _atom_site_fract_z
  _atom_site_occupancy
  S   S1        1.0  0.37509  0.87509  0.25019  1.0000
  S   S2        1.0  0.12491  0.37509  0.50000  1.0000
  S   S3        1.0  0.87509  0.62491  0.50000  1.0000
  S   S4        1.0  0.62491  0.12491  0.74981  1.0000
  Cd  Cd1       1.0  0.75000  0.75000  0.00000  1.0000
  Cd  Cd2       1.0  0.25000  0.25000  0.00000  1.0000
