data_image0
_chemical_formula_structural       N10Cd6
_chemical_formula_sum              "N10 Cd6"
_cell_length_a       6.70321
_cell_length_b       6.70321
_cell_length_c       6.70321
_cell_angle_alpha    113.625
_cell_angle_beta     113.625
_cell_angle_gamma    101.45

_space_group_name_H-M_alt    "P 1"
_space_group_IT_number       1

loop_
  _space_group_symop_operation_xyz
  'x, y, z'

loop_
  _atom_site_type_symbol
  _atom_site_label
  _atom_site_symmetry_multiplicity
  _atom_site_fract_x
  _atom_site_fract_y
  _atom_site_fract_z
  _atom_site_occupancy
  N   N1        1.0  0.34443  0.65567  0.50000  1.0000
  N   N2        1.0  0.65557  0.34433  0.50000  1.0000
  N   N3        1.0  0.50000  0.50000  0.00000  1.0000
  N   N4        1.0  0.00000  0.00000  0.00000  1.0000
  N   N5        1.0  0.15567  0.84443  0.50000  1.0000
  N   N6        1.0  0.84443  0.34443  0.68876  1.0000
  N   N7        1.0  0.65567  0.15567  0.31124  1.0000
  N   N8        1.0  0.34433  0.84433  0.68876  1.0000
  N   N9        1.0  0.15557  0.65557  0.31124  1.0000
  N   N10       1.0  0.84433  0.15557  0.50000  1.0000
  Cd  Cd1       1.0  0.74947  0.75053  0.50000  1.0000
  Cd  Cd2       1.0  0.75053  0.25053  0.00106  1.0000
  Cd  Cd3       1.0  0.24947  0.74947  0.99894  1.0000
  Cd  Cd4       1.0  0.25053  0.24947  0.50000  1.0000
  Cd  Cd5       1.0  0.25000  0.25000  0.00000  1.0000
  Cd  Cd6       1.0  0.75000  0.75000  0.00000  1.0000
