data_image0
_chemical_formula_structural       Cd14S20
_chemical_formula_sum              "Cd14 S20"
_cell_length_a       10.3703
_cell_length_b       10.3703
_cell_length_c       7.93396
_cell_angle_alpha    79.9446
_cell_angle_beta     79.9446
_cell_angle_gamma    81.3183

_space_group_name_H-M_alt    "P 1"
_space_group_IT_number       1

loop_
  _space_group_symop_operation_xyz
  'x, y, z'

loop_
  _atom_site_type_symbol
  _atom_site_label
  _atom_site_symmetry_multiplicity
  _atom_site_fract_x
  _atom_site_fract_y
  _atom_site_fract_z
  _atom_site_occupancy
  Cd  Cd1       1.0  0.15443  0.53767  0.53410  1.0000
  Cd  Cd2       1.0  0.53108  0.53108  0.71655  1.0000
  Cd  Cd3       1.0  0.86542  0.17545  0.77929  1.0000
  Cd  Cd4       1.0  0.84557  0.46233  0.46590  1.0000
  Cd  Cd5       1.0  0.20888  0.20888  0.77793  1.0000
  Cd  Cd6       1.0  0.82455  0.13458  0.22071  1.0000
  Cd  Cd7       1.0  0.17859  0.17859  0.27514  1.0000
  Cd  Cd8       1.0  0.13458  0.82455  0.22071  1.0000
  Cd  Cd9       1.0  0.46233  0.84557  0.46590  1.0000
  Cd  Cd10      1.0  0.82141  0.82141  0.72486  1.0000
  Cd  Cd11      1.0  0.17545  0.86542  0.77929  1.0000
  Cd  Cd12      1.0  0.46892  0.46892  0.28345  1.0000
  Cd  Cd13      1.0  0.79112  0.79112  0.22207  1.0000
  Cd  Cd14      1.0  0.53767  0.15443  0.53410  1.0000
  S   S1        1.0  0.26616  0.00465  0.00394  1.0000
  S   S2        1.0  0.67256  0.36314  0.11756  1.0000
  S   S3        1.0  0.24303  0.75697  0.50000  1.0000
  S   S4        1.0  0.92109  0.56627  0.71323  1.0000
  S   S5        1.0  0.73384  0.99535  0.99606  1.0000
  S   S6        1.0  0.36314  0.67256  0.11756  1.0000
  S   S7        1.0  0.43373  0.07891  0.28677  1.0000
  S   S8        1.0  0.75697  0.24303  0.50000  1.0000
  S   S9        1.0  0.32744  0.63686  0.88244  1.0000
  S   S10       1.0  0.99535  0.73384  0.99606  1.0000
  S   S11       1.0  0.07891  0.43373  0.28677  1.0000
  S   S12       1.0  0.90756  0.90756  0.39732  1.0000
  S   S13       1.0  0.00000  0.50000  0.00000  1.0000
  S   S14       1.0  0.63101  0.63101  0.39843  1.0000
  S   S15       1.0  0.56627  0.92109  0.71323  1.0000
  S   S16       1.0  0.00465  0.26616  0.00394  1.0000
  S   S17       1.0  0.63686  0.32744  0.88244  1.0000
  S   S18       1.0  0.09244  0.09244  0.60268  1.0000
  S   S19       1.0  0.50000  0.00000  0.00000  1.0000
  S   S20       1.0  0.36899  0.36899  0.60157  1.0000
