data_image0
_chemical_formula_structural       S6Cd2
_chemical_formula_sum              "S6 Cd2"
_cell_length_a       4.02408
_cell_length_b       6.84644
_cell_length_c       7.71229
_cell_angle_alpha    90
_cell_angle_beta     90
_cell_angle_gamma    90

_space_group_name_H-M_alt    "P 1"
_space_group_IT_number       1

loop_
  _space_group_symop_operation_xyz
  'x, y, z'

loop_
  _atom_site_type_symbol
  _atom_site_label
  _atom_site_symmetry_multiplicity
  _atom_site_fract_x
  _atom_site_fract_y
  _atom_site_fract_z
  _atom_site_occupancy
  S   S1        1.0  0.00000  0.28930  0.30192  1.0000
  S   S2        1.0  0.00000  0.28930  0.69808  1.0000
  S   S3        1.0  0.50000  0.71070  0.19808  1.0000
  S   S4        1.0  0.50000  0.71070  0.80192  1.0000
  S   S5        1.0  0.00000  0.07987  0.50000  1.0000
  S   S6        1.0  0.50000  0.92013  0.00000  1.0000
  Cd  Cd1       1.0  0.00000  0.55730  0.00000  1.0000
  Cd  Cd2       1.0  0.50000  0.44270  0.50000  1.0000
