data_image0
_chemical_formula_structural       N4Cd4
_chemical_formula_sum              "N4 Cd4"
_cell_length_a       3.33576
_cell_length_b       5.87204
_cell_length_c       5.81567
_cell_angle_alpha    90
_cell_angle_beta     90
_cell_angle_gamma    90

_space_group_name_H-M_alt    "P 1"
_space_group_IT_number       1

loop_
  _space_group_symop_operation_xyz
  'x, y, z'

loop_
  _atom_site_type_symbol
  _atom_site_label
  _atom_site_symmetry_multiplicity
  _atom_site_fract_x
  _atom_site_fract_y
  _atom_site_fract_z
  _atom_site_occupancy
  N   N1        1.0  0.75000  0.74942  0.58542  1.0000
  N   N2        1.0  0.25000  0.25058  0.41458  1.0000
  N   N3        1.0  0.75000  0.24942  0.91458  1.0000
  N   N4        1.0  0.25000  0.75058  0.08542  1.0000
  Cd  Cd1       1.0  0.75000  0.99873  0.25071  1.0000
  Cd  Cd2       1.0  0.25000  0.00127  0.74929  1.0000
  Cd  Cd3       1.0  0.75000  0.49873  0.24929  1.0000
  Cd  Cd4       1.0  0.25000  0.50127  0.75071  1.0000
