data_image0
_chemical_formula_structural       Cd6S20
_chemical_formula_sum              "Cd6 S20"
_cell_length_a       13.9458
_cell_length_b       13.9458
_cell_length_c       4.23478
_cell_angle_alpha    90
_cell_angle_beta     90
_cell_angle_gamma    120

_space_group_name_H-M_alt    "P 1"
_space_group_IT_number       1

loop_
  _space_group_symop_operation_xyz
  'x, y, z'

loop_
  _atom_site_type_symbol
  _atom_site_label
  _atom_site_symmetry_multiplicity
  _atom_site_fract_x
  _atom_site_fract_y
  _atom_site_fract_z
  _atom_site_occupancy
  Cd  Cd1       1.0  0.45748  0.58916  0.25000  1.0000
  Cd  Cd2       1.0  0.41084  0.86832  0.25000  1.0000
  Cd  Cd3       1.0  0.13168  0.54252  0.25000  1.0000
  Cd  Cd4       1.0  0.54252  0.41084  0.75000  1.0000
  Cd  Cd5       1.0  0.58916  0.13168  0.75000  1.0000
  Cd  Cd6       1.0  0.86832  0.45748  0.75000  1.0000
  S   S1        1.0  0.90692  0.09712  0.25000  1.0000
  S   S2        1.0  0.90288  0.80980  0.25000  1.0000
  S   S3        1.0  0.19020  0.09308  0.25000  1.0000
  S   S4        1.0  0.09308  0.90288  0.75000  1.0000
  S   S5        1.0  0.09712  0.19020  0.75000  1.0000
  S   S6        1.0  0.80980  0.90692  0.75000  1.0000
  S   S7        1.0  0.62275  0.04603  0.25000  1.0000
  S   S8        1.0  0.95397  0.57672  0.25000  1.0000
  S   S9        1.0  0.42328  0.37725  0.25000  1.0000
  S   S10       1.0  0.37725  0.95397  0.75000  1.0000
  S   S11       1.0  0.04603  0.42328  0.75000  1.0000
  S   S12       1.0  0.57672  0.62275  0.75000  1.0000
  S   S13       1.0  0.81637  0.16497  0.25000  1.0000
  S   S14       1.0  0.83503  0.65139  0.25000  1.0000
  S   S15       1.0  0.34861  0.18363  0.25000  1.0000
  S   S16       1.0  0.18363  0.83503  0.75000  1.0000
  S   S17       1.0  0.16497  0.34861  0.75000  1.0000
  S   S18       1.0  0.65139  0.81637  0.75000  1.0000
  S   S19       1.0  0.66667  0.33333  0.75000  1.0000
  S   S20       1.0  0.33333  0.66667  0.25000  1.0000
