data_image0
_chemical_formula_structural       CdS4
_chemical_formula_sum              "Cd1 S4"
_cell_length_a       6.84465
_cell_length_b       6.84465
_cell_length_c       6.84465
_cell_angle_alpha    93.2
_cell_angle_beta     93.2
_cell_angle_gamma    152.667

_space_group_name_H-M_alt    "P 1"
_space_group_IT_number       1

loop_
  _space_group_symop_operation_xyz
  'x, y, z'

loop_
  _atom_site_type_symbol
  _atom_site_label
  _atom_site_symmetry_multiplicity
  _atom_site_fract_x
  _atom_site_fract_y
  _atom_site_fract_z
  _atom_site_occupancy
  Cd  Cd1       1.0  0.00000  0.00000  0.00000  1.0000
  S   S1        1.0  0.72446  0.81925  0.54370  1.0000
  S   S2        1.0  0.27554  0.18075  0.45630  1.0000
  S   S3        1.0  0.18075  0.72446  0.90521  1.0000
  S   S4        1.0  0.81925  0.27554  0.09479  1.0000
