data_image0
_chemical_formula_structural       Cd2N4
_chemical_formula_sum              "Cd2 N4"
_cell_length_a       5.54046
_cell_length_b       5.54046
_cell_length_c       5.54046
_cell_angle_alpha    126.21
_cell_angle_beta     126.21
_cell_angle_gamma    79.5438

_space_group_name_H-M_alt    "P 1"
_space_group_IT_number       1

loop_
  _space_group_symop_operation_xyz
  'x, y, z'

loop_
  _atom_site_type_symbol
  _atom_site_label
  _atom_site_symmetry_multiplicity
  _atom_site_fract_x
  _atom_site_fract_y
  _atom_site_fract_z
  _atom_site_occupancy
  Cd  Cd1       1.0  0.75000  0.75000  0.00000  1.0000
  Cd  Cd2       1.0  0.25000  0.25000  0.00000  1.0000
  N   N1        1.0  0.42002  0.07998  0.50000  1.0000
  N   N2        1.0  0.92002  0.42002  0.34004  1.0000
  N   N3        1.0  0.57998  0.92002  0.50000  1.0000
  N   N4        1.0  0.07998  0.57998  0.65996  1.0000
