data_image0
_chemical_formula_structural       Cd4S8
_chemical_formula_sum              "Cd4 S8"
_cell_length_a       3.82307
_cell_length_b       7.90956
_cell_length_c       9.26154
_cell_angle_alpha    90
_cell_angle_beta     90
_cell_angle_gamma    90

_space_group_name_H-M_alt    "P 1"
_space_group_IT_number       1

loop_
  _space_group_symop_operation_xyz
  'x, y, z'

loop_
  _atom_site_type_symbol
  _atom_site_label
  _atom_site_symmetry_multiplicity
  _atom_site_fract_x
  _atom_site_fract_y
  _atom_site_fract_z
  _atom_site_occupancy
  Cd  Cd1       1.0  0.75000  0.83616  0.07598  1.0000
  Cd  Cd2       1.0  0.25000  0.16384  0.92402  1.0000
  Cd  Cd3       1.0  0.75000  0.33616  0.42402  1.0000
  Cd  Cd4       1.0  0.25000  0.66384  0.57598  1.0000
  S   S1        1.0  0.75000  0.48728  0.67874  1.0000
  S   S2        1.0  0.25000  0.51272  0.32126  1.0000
  S   S3        1.0  0.75000  0.98728  0.82126  1.0000
  S   S4        1.0  0.25000  0.01272  0.17874  1.0000
  S   S5        1.0  0.75000  0.50961  0.07450  1.0000
  S   S6        1.0  0.25000  0.49039  0.92550  1.0000
  S   S7        1.0  0.75000  0.00961  0.42550  1.0000
  S   S8        1.0  0.25000  0.99039  0.57450  1.0000
