data_image0
_chemical_formula_structural       Cd9S13
_chemical_formula_sum              "Cd9 S13"
_cell_length_a       7.08589
_cell_length_b       7.08589
_cell_length_c       11.6897
_cell_angle_alpha    72.6156
_cell_angle_beta     72.6156
_cell_angle_gamma    100.405

_space_group_name_H-M_alt    "P 1"
_space_group_IT_number       1

loop_
  _space_group_symop_operation_xyz
  'x, y, z'

loop_
  _atom_site_type_symbol
  _atom_site_label
  _atom_site_symmetry_multiplicity
  _atom_site_fract_x
  _atom_site_fract_y
  _atom_site_fract_z
  _atom_site_occupancy
  Cd  Cd1       1.0  0.30132  0.30132  0.07045  1.0000
  Cd  Cd2       1.0  0.72405  0.25026  0.26165  1.0000
  Cd  Cd3       1.0  0.81725  0.81725  0.18986  1.0000
  Cd  Cd4       1.0  0.18275  0.18275  0.81014  1.0000
  Cd  Cd5       1.0  0.50000  0.50000  0.50000  1.0000
  Cd  Cd6       1.0  0.69868  0.69868  0.92955  1.0000
  Cd  Cd7       1.0  0.25026  0.72405  0.26165  1.0000
  Cd  Cd8       1.0  0.74974  0.27595  0.73835  1.0000
  Cd  Cd9       1.0  0.27595  0.74974  0.73835  1.0000
  S   S1        1.0  0.49974  0.13297  0.64473  1.0000
  S   S2        1.0  0.13297  0.49974  0.64473  1.0000
  S   S3        1.0  0.50291  0.50291  0.17676  1.0000
  S   S4        1.0  0.04320  0.04320  0.29109  1.0000
  S   S5        1.0  0.50026  0.86703  0.35527  1.0000
  S   S6        1.0  0.83464  0.16536  0.00000  1.0000
  S   S7        1.0  0.95680  0.95680  0.70891  1.0000
  S   S8        1.0  0.49709  0.49709  0.82324  1.0000
  S   S9        1.0  0.16536  0.83464  0.00000  1.0000
  S   S10       1.0  0.00000  0.00000  0.50000  1.0000
  S   S11       1.0  0.86703  0.50026  0.35527  1.0000
  S   S12       1.0  0.00000  0.50000  0.00000  1.0000
  S   S13       1.0  0.50000  0.00000  0.00000  1.0000
