data_image0
_chemical_formula_structural       Cd10N6
_chemical_formula_sum              "Cd10 N6"
_cell_length_a       7.11071
_cell_length_b       7.11071
_cell_length_c       7.11071
_cell_angle_alpha    101.786
_cell_angle_beta     101.786
_cell_angle_gamma    126.263

_space_group_name_H-M_alt    "P 1"
_space_group_IT_number       1

loop_
  _space_group_symop_operation_xyz
  'x, y, z'

loop_
  _atom_site_type_symbol
  _atom_site_label
  _atom_site_symmetry_multiplicity
  _atom_site_fract_x
  _atom_site_fract_y
  _atom_site_fract_z
  _atom_site_occupancy
  Cd  Cd1       1.0  0.57874  0.29606  0.87480  1.0000
  Cd  Cd2       1.0  0.42126  0.70394  0.12520  1.0000
  Cd  Cd3       1.0  0.70394  0.57874  0.28269  1.0000
  Cd  Cd4       1.0  0.29606  0.42126  0.71731  1.0000
  Cd  Cd5       1.0  0.92126  0.79606  0.71731  1.0000
  Cd  Cd6       1.0  0.20394  0.92126  0.12520  1.0000
  Cd  Cd7       1.0  0.25000  0.75000  0.50000  1.0000
  Cd  Cd8       1.0  0.75000  0.25000  0.50000  1.0000
  Cd  Cd9       1.0  0.07874  0.20394  0.28269  1.0000
  Cd  Cd10      1.0  0.79606  0.07874  0.87480  1.0000
  N   N1        1.0  0.85437  0.35437  0.20874  1.0000
  N   N2        1.0  0.64563  0.85437  0.50000  1.0000
  N   N3        1.0  0.35437  0.14563  0.50000  1.0000
  N   N4        1.0  0.14563  0.64563  0.79126  1.0000
  N   N5        1.0  0.75000  0.75000  0.00000  1.0000
  N   N6        1.0  0.25000  0.25000  0.00000  1.0000
