data_image0
_chemical_formula_structural       Cd4S8
_chemical_formula_sum              "Cd4 S8"
_cell_length_a       7.74473
_cell_length_b       7.74473
_cell_length_c       7.74473
_cell_angle_alpha    60
_cell_angle_beta     60
_cell_angle_gamma    60

_space_group_name_H-M_alt    "P 1"
_space_group_IT_number       1

loop_
  _space_group_symop_operation_xyz
  'x, y, z'

loop_
  _atom_site_type_symbol
  _atom_site_label
  _atom_site_symmetry_multiplicity
  _atom_site_fract_x
  _atom_site_fract_y
  _atom_site_fract_z
  _atom_site_occupancy
  Cd  Cd1       1.0  0.62500  0.62500  0.62500  1.0000
  Cd  Cd2       1.0  0.12500  0.62500  0.62500  1.0000
  Cd  Cd3       1.0  0.62500  0.12500  0.62500  1.0000
  Cd  Cd4       1.0  0.62500  0.62500  0.12500  1.0000
  S   S1        1.0  0.86552  0.40343  0.86552  1.0000
  S   S2        1.0  0.38448  0.38448  0.84657  1.0000
  S   S3        1.0  0.84657  0.38448  0.38448  1.0000
  S   S4        1.0  0.38448  0.38448  0.38448  1.0000
  S   S5        1.0  0.40343  0.86552  0.86552  1.0000
  S   S6        1.0  0.86552  0.86552  0.86552  1.0000
  S   S7        1.0  0.86552  0.86552  0.40343  1.0000
  S   S8        1.0  0.38448  0.84657  0.38448  1.0000
