data_image0
_chemical_formula_structural       Cd3N4
_chemical_formula_sum              "Cd3 N4"
_cell_length_a       5.95598
_cell_length_b       5.95598
_cell_length_c       5.98108
_cell_angle_alpha    62.7924
_cell_angle_beta     62.7924
_cell_angle_gamma    32.7046

_space_group_name_H-M_alt    "P 1"
_space_group_IT_number       1

loop_
  _space_group_symop_operation_xyz
  'x, y, z'

loop_
  _atom_site_type_symbol
  _atom_site_label
  _atom_site_symmetry_multiplicity
  _atom_site_fract_x
  _atom_site_fract_y
  _atom_site_fract_z
  _atom_site_occupancy
  Cd  Cd1       1.0  0.00000  0.00000  0.00000  1.0000
  Cd  Cd2       1.0  0.30374  0.30374  0.69886  1.0000
  Cd  Cd3       1.0  0.69626  0.69626  0.30114  1.0000
  N   N1        1.0  0.11409  0.11409  0.57753  1.0000
  N   N2        1.0  0.88591  0.88591  0.42247  1.0000
  N   N3        1.0  0.65109  0.65109  0.97107  1.0000
  N   N4        1.0  0.34891  0.34891  0.02893  1.0000
