data_image0
_chemical_formula_structural       Cd4N12
_chemical_formula_sum              "Cd4 N12"
_cell_length_a       7.66296
_cell_length_b       7.66296
_cell_length_c       4.08166
_cell_angle_alpha    90
_cell_angle_beta     90
_cell_angle_gamma    131.575

_space_group_name_H-M_alt    "P 1"
_space_group_IT_number       1

loop_
  _space_group_symop_operation_xyz
  'x, y, z'

loop_
  _atom_site_type_symbol
  _atom_site_label
  _atom_site_symmetry_multiplicity
  _atom_site_fract_x
  _atom_site_fract_y
  _atom_site_fract_z
  _atom_site_occupancy
  Cd  Cd1       1.0  0.64924  0.35076  0.00000  1.0000
  Cd  Cd2       1.0  0.35076  0.64924  0.00000  1.0000
  Cd  Cd3       1.0  0.14924  0.85076  0.50000  1.0000
  Cd  Cd4       1.0  0.85076  0.14924  0.50000  1.0000
  N   N1        1.0  0.71491  0.71491  0.99697  1.0000
  N   N2        1.0  0.21491  0.21491  0.50303  1.0000
  N   N3        1.0  0.78509  0.78509  0.49697  1.0000
  N   N4        1.0  0.45669  0.54331  0.50000  1.0000
  N   N5        1.0  0.00022  0.50022  0.75000  1.0000
  N   N6        1.0  0.95669  0.04331  0.00000  1.0000
  N   N7        1.0  0.99978  0.49978  0.25000  1.0000
  N   N8        1.0  0.28509  0.28509  0.00303  1.0000
  N   N9        1.0  0.54331  0.45669  0.50000  1.0000
  N   N10       1.0  0.04331  0.95669  0.00000  1.0000
  N   N11       1.0  0.49978  0.99978  0.25000  1.0000
  N   N12       1.0  0.50022  0.00022  0.75000  1.0000
