data_image0
_chemical_formula_structural       Cd2S3
_chemical_formula_sum              "Cd2 S3"
_cell_length_a       3.98064
_cell_length_b       3.98064
_cell_length_c       8.25521
_cell_angle_alpha    90
_cell_angle_beta     90
_cell_angle_gamma    120

_space_group_name_H-M_alt    "P 1"
_space_group_IT_number       1

loop_
  _space_group_symop_operation_xyz
  'x, y, z'

loop_
  _atom_site_type_symbol
  _atom_site_label
  _atom_site_symmetry_multiplicity
  _atom_site_fract_x
  _atom_site_fract_y
  _atom_site_fract_z
  _atom_site_occupancy
  Cd  Cd1       1.0  0.66667  0.33333  0.29818  1.0000
  Cd  Cd2       1.0  0.33333  0.66667  0.70182  1.0000
  S   S1        1.0  0.00000  0.00000  0.50000  1.0000
  S   S2        1.0  0.00000  0.00000  0.12828  1.0000
  S   S3        1.0  0.00000  0.00000  0.87172  1.0000
