data_image0
_chemical_formula_structural       Cd3N6
_chemical_formula_sum              "Cd3 N6"
_cell_length_a       9.1871
_cell_length_b       9.1871
_cell_length_c       2.3539
_cell_angle_alpha    90
_cell_angle_beta     90
_cell_angle_gamma    120

_space_group_name_H-M_alt    "P 1"
_space_group_IT_number       1

loop_
  _space_group_symop_operation_xyz
  'x, y, z'

loop_
  _atom_site_type_symbol
  _atom_site_label
  _atom_site_symmetry_multiplicity
  _atom_site_fract_x
  _atom_site_fract_y
  _atom_site_fract_z
  _atom_site_occupancy
  Cd  Cd1       1.0  0.66667  0.33333  0.00000  1.0000
  Cd  Cd2       1.0  0.33333  0.66667  0.00000  1.0000
  Cd  Cd3       1.0  0.00000  0.00000  0.50000  1.0000
  N   N1        1.0  0.38175  0.00000  0.50000  1.0000
  N   N2        1.0  0.61825  0.61825  0.50000  1.0000
  N   N3        1.0  0.00000  0.38175  0.50000  1.0000
  N   N4        1.0  0.00000  0.29950  0.00000  1.0000
  N   N5        1.0  0.70050  0.70050  0.00000  1.0000
  N   N6        1.0  0.29950  0.00000  0.00000  1.0000
