data_image0
_chemical_formula_structural       Cd6S10
_chemical_formula_sum              "Cd6 S10"
_cell_length_a       3.63504
_cell_length_b       6.74878
_cell_length_c       13.6347
_cell_angle_alpha    90
_cell_angle_beta     90
_cell_angle_gamma    90

_space_group_name_H-M_alt    "P 1"
_space_group_IT_number       1

loop_
  _space_group_symop_operation_xyz
  'x, y, z'

loop_
  _atom_site_type_symbol
  _atom_site_label
  _atom_site_symmetry_multiplicity
  _atom_site_fract_x
  _atom_site_fract_y
  _atom_site_fract_z
  _atom_site_occupancy
  Cd  Cd1       1.0  0.50000  0.41335  0.77807  1.0000
  Cd  Cd2       1.0  0.50000  0.91335  0.72193  1.0000
  Cd  Cd3       1.0  0.00000  0.50000  0.50000  1.0000
  Cd  Cd4       1.0  0.00000  0.00000  0.00000  1.0000
  Cd  Cd5       1.0  0.50000  0.58665  0.22193  1.0000
  Cd  Cd6       1.0  0.50000  0.08665  0.27807  1.0000
  S   S1        1.0  0.50000  0.81005  0.42508  1.0000
  S   S2        1.0  0.50000  0.18995  0.57492  1.0000
  S   S3        1.0  0.00000  0.13097  0.82339  1.0000
  S   S4        1.0  0.50000  0.68995  0.92508  1.0000
  S   S5        1.0  0.00000  0.36903  0.32339  1.0000
  S   S6        1.0  0.00000  0.86903  0.17661  1.0000
  S   S7        1.0  0.00000  0.63097  0.67661  1.0000
  S   S8        1.0  0.00000  0.50000  0.00000  1.0000
  S   S9        1.0  0.00000  0.00000  0.50000  1.0000
  S   S10       1.0  0.50000  0.31005  0.07492  1.0000
