data_image0
_chemical_formula_structural       S6Cd4
_chemical_formula_sum              "S6 Cd4"
_cell_length_a       7.76538
_cell_length_b       7.76538
_cell_length_c       10.7042
_cell_angle_alpha    49.2568
_cell_angle_beta     49.2568
_cell_angle_gamma    32.6617

_space_group_name_H-M_alt    "P 1"
_space_group_IT_number       1

loop_
  _space_group_symop_operation_xyz
  'x, y, z'

loop_
  _atom_site_type_symbol
  _atom_site_label
  _atom_site_symmetry_multiplicity
  _atom_site_fract_x
  _atom_site_fract_y
  _atom_site_fract_z
  _atom_site_occupancy
  S   S1        1.0  0.08021  0.08021  0.38858  1.0000
  S   S2        1.0  0.91979  0.91979  0.61142  1.0000
  S   S3        1.0  0.38233  0.38233  0.33884  1.0000
  S   S4        1.0  0.61767  0.61767  0.66116  1.0000
  S   S5        1.0  0.80809  0.80809  0.07302  1.0000
  S   S6        1.0  0.19191  0.19191  0.92698  1.0000
  Cd  Cd1       1.0  0.38648  0.38648  0.88967  1.0000
  Cd  Cd2       1.0  0.61352  0.61352  0.11033  1.0000
  Cd  Cd3       1.0  0.20139  0.20139  0.68040  1.0000
  Cd  Cd4       1.0  0.79861  0.79861  0.31960  1.0000
