data_image0
_chemical_formula_structural       Cd6S4
_chemical_formula_sum              "Cd6 S4"
_cell_length_a       7.85952
_cell_length_b       7.85952
_cell_length_c       4.09173
_cell_angle_alpha    90
_cell_angle_beta     90
_cell_angle_gamma    90

_space_group_name_H-M_alt    "P 1"
_space_group_IT_number       1

loop_
  _space_group_symop_operation_xyz
  'x, y, z'

loop_
  _atom_site_type_symbol
  _atom_site_label
  _atom_site_symmetry_multiplicity
  _atom_site_fract_x
  _atom_site_fract_y
  _atom_site_fract_z
  _atom_site_occupancy
  Cd  Cd1       1.0  0.00000  0.00000  0.00000  1.0000
  Cd  Cd2       1.0  0.50000  0.50000  0.00000  1.0000
  Cd  Cd3       1.0  0.17720  0.67720  0.71556  1.0000
  Cd  Cd4       1.0  0.32280  0.17720  0.28444  1.0000
  Cd  Cd5       1.0  0.67720  0.82280  0.28444  1.0000
  Cd  Cd6       1.0  0.82280  0.32280  0.71556  1.0000
  S   S1        1.0  0.33318  0.83318  0.24451  1.0000
  S   S2        1.0  0.16682  0.33318  0.75549  1.0000
  S   S3        1.0  0.83318  0.66682  0.75549  1.0000
  S   S4        1.0  0.66682  0.16682  0.24451  1.0000
