data_image0
_chemical_formula_structural       Se9Cd13
_chemical_formula_sum              "Se9 Cd13"
_cell_length_a       8.20953
_cell_length_b       8.20953
_cell_length_c       9.84898
_cell_angle_alpha    90
_cell_angle_beta     90
_cell_angle_gamma    120

_space_group_name_H-M_alt    "P 1"
_space_group_IT_number       1

loop_
  _space_group_symop_operation_xyz
  'x, y, z'

loop_
  _atom_site_type_symbol
  _atom_site_label
  _atom_site_symmetry_multiplicity
  _atom_site_fract_x
  _atom_site_fract_y
  _atom_site_fract_z
  _atom_site_occupancy
  Se  Se1       1.0  0.00000  0.00000  0.50000  1.0000
  Se  Se2       1.0  0.33333  0.66667  0.82167  1.0000
  Se  Se3       1.0  0.66667  0.33333  0.17833  1.0000
  Se  Se4       1.0  0.16995  0.83005  0.16331  1.0000
  Se  Se5       1.0  0.16995  0.33990  0.16331  1.0000
  Se  Se6       1.0  0.66010  0.83005  0.16331  1.0000
  Se  Se7       1.0  0.33990  0.16995  0.83669  1.0000
  Se  Se8       1.0  0.83005  0.66010  0.83669  1.0000
  Se  Se9       1.0  0.83005  0.16995  0.83669  1.0000
  Cd  Cd1       1.0  0.00000  0.00000  0.00000  1.0000
  Cd  Cd2       1.0  0.50000  0.00000  0.00000  1.0000
  Cd  Cd3       1.0  0.00000  0.50000  0.00000  1.0000
  Cd  Cd4       1.0  0.50000  0.50000  0.00000  1.0000
  Cd  Cd5       1.0  0.50000  0.00000  0.50000  1.0000
  Cd  Cd6       1.0  0.00000  0.50000  0.50000  1.0000
  Cd  Cd7       1.0  0.50000  0.50000  0.50000  1.0000
  Cd  Cd8       1.0  0.15639  0.84361  0.68705  1.0000
  Cd  Cd9       1.0  0.15639  0.31278  0.68705  1.0000
  Cd  Cd10      1.0  0.68722  0.84361  0.68705  1.0000
  Cd  Cd11      1.0  0.31278  0.15639  0.31295  1.0000
  Cd  Cd12      1.0  0.84361  0.68722  0.31295  1.0000
  Cd  Cd13      1.0  0.84361  0.15639  0.31295  1.0000
