data_image0
_chemical_formula_structural       CdSe2
_chemical_formula_sum              "Cd1 Se2"
_cell_length_a       5.6107
_cell_length_b       5.6107
_cell_length_c       5.6107
_cell_angle_alpha    139.792
_cell_angle_beta     139.792
_cell_angle_gamma    58.1698

_space_group_name_H-M_alt    "P 1"
_space_group_IT_number       1

loop_
  _space_group_symop_operation_xyz
  'x, y, z'

loop_
  _atom_site_type_symbol
  _atom_site_label
  _atom_site_symmetry_multiplicity
  _atom_site_fract_x
  _atom_site_fract_y
  _atom_site_fract_z
  _atom_site_occupancy
  Cd  Cd1       1.0  0.00000  0.00000  0.00000  1.0000
  Se  Se1       1.0  0.62855  0.62855  0.00000  1.0000
  Se  Se2       1.0  0.37145  0.37145  0.00000  1.0000
