data_image0
_chemical_formula_structural       Cd8S16
_chemical_formula_sum              "Cd8 S16"
_cell_length_a       8.44192
_cell_length_b       8.44192
_cell_length_c       8.39332
_cell_angle_alpha    90
_cell_angle_beta     90
_cell_angle_gamma    75.3291

_space_group_name_H-M_alt    "P 1"
_space_group_IT_number       1

loop_
  _space_group_symop_operation_xyz
  'x, y, z'

loop_
  _atom_site_type_symbol
  _atom_site_label
  _atom_site_symmetry_multiplicity
  _atom_site_fract_x
  _atom_site_fract_y
  _atom_site_fract_z
  _atom_site_occupancy
  Cd  Cd1       1.0  0.21378  0.21378  0.75784  1.0000
  Cd  Cd2       1.0  0.28622  0.28622  0.25784  1.0000
  Cd  Cd3       1.0  0.71378  0.71378  0.74216  1.0000
  Cd  Cd4       1.0  0.78622  0.78622  0.24216  1.0000
  Cd  Cd5       1.0  0.21216  0.78784  0.50000  1.0000
  Cd  Cd6       1.0  0.28784  0.71216  0.00000  1.0000
  Cd  Cd7       1.0  0.78784  0.21216  0.50000  1.0000
  Cd  Cd8       1.0  0.71216  0.28784  0.00000  1.0000
  S   S1        1.0  0.37856  0.58432  0.27848  1.0000
  S   S2        1.0  0.12144  0.91568  0.77848  1.0000
  S   S3        1.0  0.08432  0.87856  0.22152  1.0000
  S   S4        1.0  0.41568  0.62144  0.72152  1.0000
  S   S5        1.0  0.62144  0.41568  0.72152  1.0000
  S   S6        1.0  0.87856  0.08432  0.22152  1.0000
  S   S7        1.0  0.91568  0.12144  0.77848  1.0000
  S   S8        1.0  0.58432  0.37856  0.27848  1.0000
  S   S9        1.0  0.12525  0.45269  0.98910  1.0000
  S   S10       1.0  0.37475  0.04731  0.48910  1.0000
  S   S11       1.0  0.95269  0.62525  0.51090  1.0000
  S   S12       1.0  0.54731  0.87475  0.01090  1.0000
  S   S13       1.0  0.87475  0.54731  0.01090  1.0000
  S   S14       1.0  0.62525  0.95269  0.51090  1.0000
  S   S15       1.0  0.04731  0.37475  0.48910  1.0000
  S   S16       1.0  0.45269  0.12525  0.98910  1.0000
