data_image0
_chemical_formula_structural       Cd2Tl4
_chemical_formula_sum              "Cd2 Tl4"
_cell_length_a       5.90912
_cell_length_b       5.90912
_cell_length_c       5.81447
_cell_angle_alpha    90
_cell_angle_beta     90
_cell_angle_gamma    120.342

_space_group_name_H-M_alt    "P 1"
_space_group_IT_number       1

loop_
  _space_group_symop_operation_xyz
  'x, y, z'

loop_
  _atom_site_type_symbol
  _atom_site_label
  _atom_site_symmetry_multiplicity
  _atom_site_fract_x
  _atom_site_fract_y
  _atom_site_fract_z
  _atom_site_occupancy
  Cd  Cd1       1.0  0.17811  0.17811  0.75000  1.0000
  Cd  Cd2       1.0  0.82189  0.82189  0.25000  1.0000
  Tl  Tl1       1.0  0.52064  0.85099  0.75000  1.0000
  Tl  Tl2       1.0  0.85099  0.52064  0.75000  1.0000
  Tl  Tl3       1.0  0.14901  0.47936  0.25000  1.0000
  Tl  Tl4       1.0  0.47936  0.14901  0.25000  1.0000
