data_image0
_chemical_formula_structural       CdS4
_chemical_formula_sum              "Cd1 S4"
_cell_length_a       8.0604
_cell_length_b       8.0604
_cell_length_c       8.0604
_cell_angle_alpha    26.9082
_cell_angle_beta     26.9082
_cell_angle_gamma    26.9082

_space_group_name_H-M_alt    "P 1"
_space_group_IT_number       1

loop_
  _space_group_symop_operation_xyz
  'x, y, z'

loop_
  _atom_site_type_symbol
  _atom_site_label
  _atom_site_symmetry_multiplicity
  _atom_site_fract_x
  _atom_site_fract_y
  _atom_site_fract_z
  _atom_site_occupancy
  Cd  Cd1       1.0  0.00000  0.00000  0.00000  1.0000
  S   S1        1.0  0.59804  0.59804  0.59804  1.0000
  S   S2        1.0  0.19326  0.19326  0.19326  1.0000
  S   S3        1.0  0.80674  0.80674  0.80674  1.0000
  S   S4        1.0  0.40196  0.40196  0.40196  1.0000
