data_image0
_chemical_formula_structural       S10Cd6
_chemical_formula_sum              "S10 Cd6"
_cell_length_a       7.9059
_cell_length_b       7.9059
_cell_length_c       7.9059
_cell_angle_alpha    119.716
_cell_angle_beta     119.716
_cell_angle_gamma    90.4921

_space_group_name_H-M_alt    "P 1"
_space_group_IT_number       1

loop_
  _space_group_symop_operation_xyz
  'x, y, z'

loop_
  _atom_site_type_symbol
  _atom_site_label
  _atom_site_symmetry_multiplicity
  _atom_site_fract_x
  _atom_site_fract_y
  _atom_site_fract_z
  _atom_site_occupancy
  S   S1        1.0  0.53584  0.62741  0.50000  1.0000
  S   S2        1.0  0.46416  0.37259  0.50000  1.0000
  S   S3        1.0  0.50000  0.50000  0.00000  1.0000
  S   S4        1.0  0.00000  0.00000  0.00000  1.0000
  S   S5        1.0  0.12741  0.03584  0.50000  1.0000
  S   S6        1.0  0.03584  0.53584  0.90843  1.0000
  S   S7        1.0  0.62741  0.12741  0.09157  1.0000
  S   S8        1.0  0.37259  0.87259  0.90843  1.0000
  S   S9        1.0  0.96416  0.46416  0.09157  1.0000
  S   S10       1.0  0.87259  0.96416  0.50000  1.0000
  Cd  Cd1       1.0  0.86977  0.63023  0.50000  1.0000
  Cd  Cd2       1.0  0.63023  0.13023  0.76047  1.0000
  Cd  Cd3       1.0  0.36977  0.86977  0.23953  1.0000
  Cd  Cd4       1.0  0.13023  0.36977  0.50000  1.0000
  Cd  Cd5       1.0  0.25000  0.25000  0.00000  1.0000
  Cd  Cd6       1.0  0.75000  0.75000  1.00000  1.0000
