data_image0
_chemical_formula_structural       Cd4Se8
_chemical_formula_sum              "Cd4 Se8"
_cell_length_a       14.4594
_cell_length_b       14.4594
_cell_length_c       5.64696
_cell_angle_alpha    90
_cell_angle_beta     90
_cell_angle_gamma    163.72

_space_group_name_H-M_alt    "P 1"
_space_group_IT_number       1

loop_
  _space_group_symop_operation_xyz
  'x, y, z'

loop_
  _atom_site_type_symbol
  _atom_site_label
  _atom_site_symmetry_multiplicity
  _atom_site_fract_x
  _atom_site_fract_y
  _atom_site_fract_z
  _atom_site_occupancy
  Cd  Cd1       1.0  0.57226  0.42774  0.78202  1.0000
  Cd  Cd2       1.0  0.42774  0.57226  0.28202  1.0000
  Cd  Cd3       1.0  0.22399  0.77601  0.43480  1.0000
  Cd  Cd4       1.0  0.77601  0.22399  0.93480  1.0000
  Se  Se1       1.0  0.00884  0.99116  0.77456  1.0000
  Se  Se2       1.0  0.99116  0.00884  0.27456  1.0000
  Se  Se3       1.0  0.21297  0.78703  0.94030  1.0000
  Se  Se4       1.0  0.78703  0.21297  0.44030  1.0000
  Se  Se5       1.0  0.35088  0.64912  0.99526  1.0000
  Se  Se6       1.0  0.64912  0.35088  0.49526  1.0000
  Se  Se7       1.0  0.58179  0.41821  0.25877  1.0000
  Se  Se8       1.0  0.41821  0.58179  0.75877  1.0000
