data_image0
_chemical_formula_structural       Cd3Se4
_chemical_formula_sum              "Cd3 Se4"
_cell_length_a       6.49812
_cell_length_b       6.49812
_cell_length_c       7.40928
_cell_angle_alpha    75.8432
_cell_angle_beta     75.8432
_cell_angle_gamma    37.5731

_space_group_name_H-M_alt    "P 1"
_space_group_IT_number       1

loop_
  _space_group_symop_operation_xyz
  'x, y, z'

loop_
  _atom_site_type_symbol
  _atom_site_label
  _atom_site_symmetry_multiplicity
  _atom_site_fract_x
  _atom_site_fract_y
  _atom_site_fract_z
  _atom_site_occupancy
  Cd  Cd1       1.0  0.19290  0.19290  0.81447  1.0000
  Cd  Cd2       1.0  0.80710  0.80710  0.18553  1.0000
  Cd  Cd3       1.0  0.50000  0.50000  0.50000  1.0000
  Se  Se1       1.0  0.85548  0.85548  0.51387  1.0000
  Se  Se2       1.0  0.14452  0.14452  0.48613  1.0000
  Se  Se3       1.0  0.39429  0.39429  0.96678  1.0000
  Se  Se4       1.0  0.60571  0.60571  0.03322  1.0000
