data_image0
_chemical_formula_structural       Tl12Cd4
_chemical_formula_sum              "Tl12 Cd4"
_cell_length_a       8.21176
_cell_length_b       8.21176
_cell_length_c       7.85287
_cell_angle_alpha    90
_cell_angle_beta     90
_cell_angle_gamma    90

_space_group_name_H-M_alt    "P 1"
_space_group_IT_number       1

loop_
  _space_group_symop_operation_xyz
  'x, y, z'

loop_
  _atom_site_type_symbol
  _atom_site_label
  _atom_site_symmetry_multiplicity
  _atom_site_fract_x
  _atom_site_fract_y
  _atom_site_fract_z
  _atom_site_occupancy
  Tl  Tl1       1.0  0.00000  0.50000  0.00000  1.0000
  Tl  Tl2       1.0  0.00000  0.50000  0.50000  1.0000
  Tl  Tl3       1.0  0.50000  0.00000  0.50000  1.0000
  Tl  Tl4       1.0  0.50000  0.00000  0.00000  1.0000
  Tl  Tl5       1.0  0.15993  0.15993  0.23322  1.0000
  Tl  Tl6       1.0  0.34007  0.65993  0.73322  1.0000
  Tl  Tl7       1.0  0.65993  0.34007  0.73322  1.0000
  Tl  Tl8       1.0  0.65993  0.34007  0.26678  1.0000
  Tl  Tl9       1.0  0.34007  0.65993  0.26678  1.0000
  Tl  Tl10      1.0  0.84007  0.84007  0.23322  1.0000
  Tl  Tl11      1.0  0.15993  0.15993  0.76678  1.0000
  Tl  Tl12      1.0  0.84007  0.84007  0.76678  1.0000
  Cd  Cd1       1.0  0.37067  0.37067  0.00000  1.0000
  Cd  Cd2       1.0  0.12933  0.87067  0.50000  1.0000
  Cd  Cd3       1.0  0.87067  0.12933  0.50000  1.0000
  Cd  Cd4       1.0  0.62933  0.62933  0.00000  1.0000
