data_image0
_chemical_formula_structural       Cd8Se16
_chemical_formula_sum              "Cd8 Se16"
_cell_length_a       6.03005
_cell_length_b       13.1364
_cell_length_c       7.67357
_cell_angle_alpha    90
_cell_angle_beta     90
_cell_angle_gamma    90

_space_group_name_H-M_alt    "P 1"
_space_group_IT_number       1

loop_
  _space_group_symop_operation_xyz
  'x, y, z'

loop_
  _atom_site_type_symbol
  _atom_site_label
  _atom_site_symmetry_multiplicity
  _atom_site_fract_x
  _atom_site_fract_y
  _atom_site_fract_z
  _atom_site_occupancy
  Cd  Cd1       1.0  0.40293  0.85136  0.06558  1.0000
  Cd  Cd2       1.0  0.09707  0.64864  0.56558  1.0000
  Cd  Cd3       1.0  0.09707  0.35136  0.93442  1.0000
  Cd  Cd4       1.0  0.40293  0.14864  0.43442  1.0000
  Cd  Cd5       1.0  0.59707  0.14864  0.93442  1.0000
  Cd  Cd6       1.0  0.90293  0.35136  0.43442  1.0000
  Cd  Cd7       1.0  0.90293  0.64864  0.06558  1.0000
  Cd  Cd8       1.0  0.59707  0.85136  0.56558  1.0000
  Se  Se1       1.0  0.19107  0.50000  0.25000  1.0000
  Se  Se2       1.0  0.30893  0.00000  0.75000  1.0000
  Se  Se3       1.0  0.80893  0.50000  0.75000  1.0000
  Se  Se4       1.0  0.69107  0.00000  0.25000  1.0000
  Se  Se5       1.0  0.21127  0.83034  0.38513  1.0000
  Se  Se6       1.0  0.28873  0.66966  0.88513  1.0000
  Se  Se7       1.0  0.28873  0.33034  0.61487  1.0000
  Se  Se8       1.0  0.21127  0.16966  0.11487  1.0000
  Se  Se9       1.0  0.78873  0.16966  0.61487  1.0000
  Se  Se10      1.0  0.71127  0.33034  0.11487  1.0000
  Se  Se11      1.0  0.71127  0.66966  0.38513  1.0000
  Se  Se12      1.0  0.78873  0.83034  0.88513  1.0000
  Se  Se13      1.0  0.50000  0.50000  0.00000  1.0000
  Se  Se14      1.0  0.00000  0.00000  0.50000  1.0000
  Se  Se15      1.0  0.00000  0.00000  0.00000  1.0000
  Se  Se16      1.0  0.50000  0.50000  0.50000  1.0000
