data_image0
_chemical_formula_structural       Tl9Cd13
_chemical_formula_sum              "Tl9 Cd13"
_cell_length_a       10.4704
_cell_length_b       10.4704
_cell_length_c       6.44068
_cell_angle_alpha    90
_cell_angle_beta     90
_cell_angle_gamma    120

_space_group_name_H-M_alt    "P 1"
_space_group_IT_number       1

loop_
  _space_group_symop_operation_xyz
  'x, y, z'

loop_
  _atom_site_type_symbol
  _atom_site_label
  _atom_site_symmetry_multiplicity
  _atom_site_fract_x
  _atom_site_fract_y
  _atom_site_fract_z
  _atom_site_occupancy
  Tl  Tl1       1.0  0.00000  0.00000  0.50000  1.0000
  Tl  Tl2       1.0  0.33333  0.66667  0.75030  1.0000
  Tl  Tl3       1.0  0.66667  0.33333  0.24970  1.0000
  Tl  Tl4       1.0  0.19259  0.80741  0.24808  1.0000
  Tl  Tl5       1.0  0.19259  0.38518  0.24808  1.0000
  Tl  Tl6       1.0  0.61482  0.80741  0.24808  1.0000
  Tl  Tl7       1.0  0.38518  0.19259  0.75192  1.0000
  Tl  Tl8       1.0  0.80741  0.61482  0.75192  1.0000
  Tl  Tl9       1.0  0.80741  0.19259  0.75192  1.0000
  Cd  Cd1       1.0  0.00000  0.00000  0.00000  1.0000
  Cd  Cd2       1.0  0.50000  0.00000  0.00000  1.0000
  Cd  Cd3       1.0  0.00000  0.50000  0.00000  1.0000
  Cd  Cd4       1.0  0.50000  0.50000  0.00000  1.0000
  Cd  Cd5       1.0  0.50000  0.00000  0.50000  1.0000
  Cd  Cd6       1.0  0.00000  0.50000  0.50000  1.0000
  Cd  Cd7       1.0  0.50000  0.50000  0.50000  1.0000
  Cd  Cd8       1.0  0.15894  0.84106  0.75255  1.0000
  Cd  Cd9       1.0  0.15894  0.31788  0.75255  1.0000
  Cd  Cd10      1.0  0.68212  0.84106  0.75255  1.0000
  Cd  Cd11      1.0  0.31788  0.15894  0.24745  1.0000
  Cd  Cd12      1.0  0.84106  0.68212  0.24745  1.0000
  Cd  Cd13      1.0  0.84106  0.15894  0.24745  1.0000
