data_image0
_chemical_formula_structural       Tl4Cd4
_chemical_formula_sum              "Tl4 Cd4"
_cell_length_a       3.39648
_cell_length_b       10.6861
_cell_length_c       6.21861
_cell_angle_alpha    90
_cell_angle_beta     90
_cell_angle_gamma    90

_space_group_name_H-M_alt    "P 1"
_space_group_IT_number       1

loop_
  _space_group_symop_operation_xyz
  'x, y, z'

loop_
  _atom_site_type_symbol
  _atom_site_label
  _atom_site_symmetry_multiplicity
  _atom_site_fract_x
  _atom_site_fract_y
  _atom_site_fract_z
  _atom_site_occupancy
  Tl  Tl1       1.0  0.25000  0.66922  0.13837  1.0000
  Tl  Tl2       1.0  0.75000  0.33078  0.86163  1.0000
  Tl  Tl3       1.0  0.25000  0.16922  0.36163  1.0000
  Tl  Tl4       1.0  0.75000  0.83078  0.63837  1.0000
  Cd  Cd1       1.0  0.25000  0.57103  0.66472  1.0000
  Cd  Cd2       1.0  0.75000  0.42897  0.33528  1.0000
  Cd  Cd3       1.0  0.25000  0.07103  0.83528  1.0000
  Cd  Cd4       1.0  0.75000  0.92897  0.16472  1.0000
