data_image0
_chemical_formula_structural       CdTl2
_chemical_formula_sum              "Cd1 Tl2"
_cell_length_a       6.44752
_cell_length_b       6.44752
_cell_length_c       6.44752
_cell_angle_alpha    149.496
_cell_angle_beta     139.392
_cell_angle_gamma    51.6269

_space_group_name_H-M_alt    "P 1"
_space_group_IT_number       1

loop_
  _space_group_symop_operation_xyz
  'x, y, z'

loop_
  _atom_site_type_symbol
  _atom_site_label
  _atom_site_symmetry_multiplicity
  _atom_site_fract_x
  _atom_site_fract_y
  _atom_site_fract_z
  _atom_site_occupancy
  Cd  Cd1       1.0  0.00000  0.00000  0.00000  1.0000
  Tl  Tl1       1.0  0.65697  0.65697  1.00000  1.0000
  Tl  Tl2       1.0  0.34303  0.34303  0.00000  1.0000
