data_image0
_chemical_formula_structural       Se10Cd6
_chemical_formula_sum              "Se10 Cd6"
_cell_length_a       8.25575
_cell_length_b       8.25575
_cell_length_c       8.25575
_cell_angle_alpha    119.81
_cell_angle_beta     119.81
_cell_angle_gamma    90.3301

_space_group_name_H-M_alt    "P 1"
_space_group_IT_number       1

loop_
  _space_group_symop_operation_xyz
  'x, y, z'

loop_
  _atom_site_type_symbol
  _atom_site_label
  _atom_site_symmetry_multiplicity
  _atom_site_fract_x
  _atom_site_fract_y
  _atom_site_fract_z
  _atom_site_occupancy
  Se  Se1       1.0  0.54346  0.64087  0.50000  1.0000
  Se  Se2       1.0  0.45654  0.35913  0.50000  1.0000
  Se  Se3       1.0  0.50000  0.50000  0.00000  1.0000
  Se  Se4       1.0  0.00000  0.00000  0.00000  1.0000
  Se  Se5       1.0  0.14087  0.04346  0.50000  1.0000
  Se  Se6       1.0  0.04346  0.54346  0.90259  1.0000
  Se  Se7       1.0  0.64087  0.14087  0.09741  1.0000
  Se  Se8       1.0  0.35913  0.85913  0.90259  1.0000
  Se  Se9       1.0  0.95654  0.45654  0.09741  1.0000
  Se  Se10      1.0  0.85913  0.95654  0.50000  1.0000
  Cd  Cd1       1.0  0.87653  0.62347  0.50000  1.0000
  Cd  Cd2       1.0  0.62347  0.12347  0.74693  1.0000
  Cd  Cd3       1.0  0.37653  0.87653  0.25307  1.0000
  Cd  Cd4       1.0  0.12347  0.37653  0.50000  1.0000
  Cd  Cd5       1.0  0.25000  0.25000  0.00000  1.0000
  Cd  Cd6       1.0  0.75000  0.75000  0.00000  1.0000
