data_image0
_chemical_formula_structural       Cd10S6
_chemical_formula_sum              "Cd10 S6"
_cell_length_a       8.15876
_cell_length_b       8.15876
_cell_length_c       8.15876
_cell_angle_alpha    101.407
_cell_angle_beta     101.407
_cell_angle_gamma    127.189

_space_group_name_H-M_alt    "P 1"
_space_group_IT_number       1

loop_
  _space_group_symop_operation_xyz
  'x, y, z'

loop_
  _atom_site_type_symbol
  _atom_site_label
  _atom_site_symmetry_multiplicity
  _atom_site_fract_x
  _atom_site_fract_y
  _atom_site_fract_z
  _atom_site_occupancy
  Cd  Cd1       1.0  0.59261  0.28935  0.88196  1.0000
  Cd  Cd2       1.0  0.40739  0.71065  0.11804  1.0000
  Cd  Cd3       1.0  0.71065  0.59261  0.30326  1.0000
  Cd  Cd4       1.0  0.28935  0.40739  0.69674  1.0000
  Cd  Cd5       1.0  0.90739  0.78935  0.69674  1.0000
  Cd  Cd6       1.0  0.21065  0.90739  0.11804  1.0000
  Cd  Cd7       1.0  0.25000  0.75000  0.50000  1.0000
  Cd  Cd8       1.0  0.75000  0.25000  0.50000  1.0000
  Cd  Cd9       1.0  0.09261  0.21065  0.30326  1.0000
  Cd  Cd10      1.0  0.78935  0.09261  0.88196  1.0000
  S   S1        1.0  0.87168  0.37168  0.24337  1.0000
  S   S2        1.0  0.62832  0.87168  0.50000  1.0000
  S   S3        1.0  0.37168  0.12832  0.50000  1.0000
  S   S4        1.0  0.12832  0.62832  0.75663  1.0000
  S   S5        1.0  0.75000  0.75000  0.00000  1.0000
  S   S6        1.0  0.25000  0.25000  0.00000  1.0000
