data_image0
_chemical_formula_structural       Cd3Tl4
_chemical_formula_sum              "Cd3 Tl4"
_cell_length_a       9.09769
_cell_length_b       9.09769
_cell_length_c       6.78588
_cell_angle_alpha    43.6686
_cell_angle_beta     43.6686
_cell_angle_gamma    32.7873

_space_group_name_H-M_alt    "P 1"
_space_group_IT_number       1

loop_
  _space_group_symop_operation_xyz
  'x, y, z'

loop_
  _atom_site_type_symbol
  _atom_site_label
  _atom_site_symmetry_multiplicity
  _atom_site_fract_x
  _atom_site_fract_y
  _atom_site_fract_z
  _atom_site_occupancy
  Cd  Cd1       1.0  0.00000  0.00000  0.00000  1.0000
  Cd  Cd2       1.0  0.26536  0.26536  0.59508  1.0000
  Cd  Cd3       1.0  0.73464  0.73464  0.40492  1.0000
  Tl  Tl1       1.0  0.15012  0.15012  0.28327  1.0000
  Tl  Tl2       1.0  0.84988  0.84988  0.71673  1.0000
  Tl  Tl3       1.0  0.55672  0.55672  0.15213  1.0000
  Tl  Tl4       1.0  0.44328  0.44328  0.84787  1.0000
