data_image0
_chemical_formula_structural       Cd10Se6
_chemical_formula_sum              "Cd10 Se6"
_cell_length_a       8.41148
_cell_length_b       8.41148
_cell_length_c       8.41148
_cell_angle_alpha    101.648
_cell_angle_beta     101.648
_cell_angle_gamma    126.599

_space_group_name_H-M_alt    "P 1"
_space_group_IT_number       1

loop_
  _space_group_symop_operation_xyz
  'x, y, z'

loop_
  _atom_site_type_symbol
  _atom_site_label
  _atom_site_symmetry_multiplicity
  _atom_site_fract_x
  _atom_site_fract_y
  _atom_site_fract_z
  _atom_site_occupancy
  Cd  Cd1       1.0  0.59313  0.28894  0.88207  1.0000
  Cd  Cd2       1.0  0.40687  0.71106  0.11793  1.0000
  Cd  Cd3       1.0  0.71106  0.59313  0.30418  1.0000
  Cd  Cd4       1.0  0.28894  0.40687  0.69582  1.0000
  Cd  Cd5       1.0  0.90687  0.78894  0.69582  1.0000
  Cd  Cd6       1.0  0.21106  0.90687  0.11793  1.0000
  Cd  Cd7       1.0  0.25000  0.75000  0.50000  1.0000
  Cd  Cd8       1.0  0.75000  0.25000  0.50000  1.0000
  Cd  Cd9       1.0  0.09313  0.21106  0.30418  1.0000
  Cd  Cd10      1.0  0.78894  0.09313  0.88207  1.0000
  Se  Se1       1.0  0.86949  0.36949  0.23897  1.0000
  Se  Se2       1.0  0.63051  0.86949  0.50000  1.0000
  Se  Se3       1.0  0.36949  0.13051  0.50000  1.0000
  Se  Se4       1.0  0.13051  0.63051  0.76103  1.0000
  Se  Se5       1.0  0.75000  0.75000  0.00000  1.0000
  Se  Se6       1.0  0.25000  0.25000  0.00000  1.0000
