data_image0
_chemical_formula_structural       Cd2Tl6
_chemical_formula_sum              "Cd2 Tl6"
_cell_length_a       5.78344
_cell_length_b       5.83237
_cell_length_c       7.08398
_cell_angle_alpha    90
_cell_angle_beta     90
_cell_angle_gamma    90

_space_group_name_H-M_alt    "P 1"
_space_group_IT_number       1

loop_
  _space_group_symop_operation_xyz
  'x, y, z'

loop_
  _atom_site_type_symbol
  _atom_site_label
  _atom_site_symmetry_multiplicity
  _atom_site_fract_x
  _atom_site_fract_y
  _atom_site_fract_z
  _atom_site_occupancy
  Cd  Cd1       1.0  0.50000  0.66316  0.50000  1.0000
  Cd  Cd2       1.0  0.00000  0.33684  0.00000  1.0000
  Tl  Tl1       1.0  0.50000  0.16310  0.74760  1.0000
  Tl  Tl2       1.0  0.50000  0.16310  0.25240  1.0000
  Tl  Tl3       1.0  0.00000  0.83690  0.75240  1.0000
  Tl  Tl4       1.0  0.00000  0.83690  0.24760  1.0000
  Tl  Tl5       1.0  0.00000  0.34138  0.50000  1.0000
  Tl  Tl6       1.0  0.50000  0.65862  0.00000  1.0000
