data_image0
_chemical_formula_structural       Tl8Cd4
_chemical_formula_sum              "Tl8 Cd4"
_cell_length_a       3.46754
_cell_length_b       9.84695
_cell_length_c       11.5051
_cell_angle_alpha    64.7312
_cell_angle_beta     90
_cell_angle_gamma    90

_space_group_name_H-M_alt    "P 1"
_space_group_IT_number       1

loop_
  _space_group_symop_operation_xyz
  'x, y, z'

loop_
  _atom_site_type_symbol
  _atom_site_label
  _atom_site_symmetry_multiplicity
  _atom_site_fract_x
  _atom_site_fract_y
  _atom_site_fract_z
  _atom_site_occupancy
  Tl  Tl1       1.0  0.22373  0.05240  0.35020  1.0000
  Tl  Tl2       1.0  0.72373  0.94760  0.14980  1.0000
  Tl  Tl3       1.0  0.77627  0.94760  0.64980  1.0000
  Tl  Tl4       1.0  0.27627  0.05240  0.85020  1.0000
  Tl  Tl5       1.0  0.76676  0.38783  0.67969  1.0000
  Tl  Tl6       1.0  0.26676  0.61217  0.82031  1.0000
  Tl  Tl7       1.0  0.23324  0.61217  0.32031  1.0000
  Tl  Tl8       1.0  0.73324  0.38783  0.17969  1.0000
  Cd  Cd1       1.0  0.21379  0.26768  0.99247  1.0000
  Cd  Cd2       1.0  0.71379  0.73232  0.50753  1.0000
  Cd  Cd3       1.0  0.78621  0.73232  0.00753  1.0000
  Cd  Cd4       1.0  0.28621  0.26768  0.49247  1.0000
