data_image0
_chemical_formula_structural       Cd6Tl6
_chemical_formula_sum              "Cd6 Tl6"
_cell_length_a       5.43647
_cell_length_b       5.43647
_cell_length_c       13.2288
_cell_angle_alpha    90
_cell_angle_beta     90
_cell_angle_gamma    120

_space_group_name_H-M_alt    "P 1"
_space_group_IT_number       1

loop_
  _space_group_symop_operation_xyz
  'x, y, z'

loop_
  _atom_site_type_symbol
  _atom_site_label
  _atom_site_symmetry_multiplicity
  _atom_site_fract_x
  _atom_site_fract_y
  _atom_site_fract_z
  _atom_site_occupancy
  Cd  Cd1       1.0  0.33333  0.66667  0.75000  1.0000
  Cd  Cd2       1.0  0.66667  0.33333  0.25000  1.0000
  Cd  Cd3       1.0  0.33333  0.66667  0.98768  1.0000
  Cd  Cd4       1.0  0.66667  0.33333  0.48768  1.0000
  Cd  Cd5       1.0  0.66667  0.33333  0.01232  1.0000
  Cd  Cd6       1.0  0.33333  0.66667  0.51232  1.0000
  Tl  Tl1       1.0  0.33333  0.66667  0.25000  1.0000
  Tl  Tl2       1.0  0.66667  0.33333  0.75000  1.0000
  Tl  Tl3       1.0  0.00000  0.00000  0.12419  1.0000
  Tl  Tl4       1.0  0.00000  0.00000  0.62419  1.0000
  Tl  Tl5       1.0  0.00000  0.00000  0.87581  1.0000
  Tl  Tl6       1.0  0.00000  0.00000  0.37581  1.0000
