data_image0
_chemical_formula_structural       Cd9Tl13
_chemical_formula_sum              "Cd9 Tl13"
_cell_length_a       8.76874
_cell_length_b       8.76874
_cell_length_c       11.6663
_cell_angle_alpha    58.5152
_cell_angle_beta     58.5152
_cell_angle_gamma    68.517

_space_group_name_H-M_alt    "P 1"
_space_group_IT_number       1

loop_
  _space_group_symop_operation_xyz
  'x, y, z'

loop_
  _atom_site_type_symbol
  _atom_site_label
  _atom_site_symmetry_multiplicity
  _atom_site_fract_x
  _atom_site_fract_y
  _atom_site_fract_z
  _atom_site_occupancy
  Cd  Cd1       1.0  0.24836  0.24836  0.17421  1.0000
  Cd  Cd2       1.0  0.77285  0.14980  0.30646  1.0000
  Cd  Cd3       1.0  0.90854  0.90854  0.97823  1.0000
  Cd  Cd4       1.0  0.09146  0.09146  0.02177  1.0000
  Cd  Cd5       1.0  0.50000  0.50000  0.50000  1.0000
  Cd  Cd6       1.0  0.75164  0.75164  0.82579  1.0000
  Cd  Cd7       1.0  0.14980  0.77285  0.30646  1.0000
  Cd  Cd8       1.0  0.85020  0.22715  0.69354  1.0000
  Cd  Cd9       1.0  0.22715  0.85020  0.69354  1.0000
  Tl  Tl1       1.0  0.48550  0.08209  0.67516  1.0000
  Tl  Tl2       1.0  0.08209  0.48550  0.67516  1.0000
  Tl  Tl3       1.0  0.56670  0.56670  0.19627  1.0000
  Tl  Tl4       1.0  0.72608  0.72608  0.56279  1.0000
  Tl  Tl5       1.0  0.51450  0.91791  0.32484  1.0000
  Tl  Tl6       1.0  0.68746  0.31254  0.00000  1.0000
  Tl  Tl7       1.0  0.27392  0.27392  0.43721  1.0000
  Tl  Tl8       1.0  0.43330  0.43330  0.80373  1.0000
  Tl  Tl9       1.0  0.31254  0.68746  0.00000  1.0000
  Tl  Tl10      1.0  0.00000  0.00000  0.50000  1.0000
  Tl  Tl11      1.0  0.91791  0.51450  0.32484  1.0000
  Tl  Tl12      1.0  0.00000  0.50000  0.00000  1.0000
  Tl  Tl13      1.0  0.50000  0.00000  0.00000  1.0000
