data_image0
_chemical_formula_structural       Tl10Cd6
_chemical_formula_sum              "Tl10 Cd6"
_cell_length_a       8.92328
_cell_length_b       8.92328
_cell_length_c       8.92328
_cell_angle_alpha    123.536
_cell_angle_beta     123.536
_cell_angle_gamma    83.9777

_space_group_name_H-M_alt    "P 1"
_space_group_IT_number       1

loop_
  _space_group_symop_operation_xyz
  'x, y, z'

loop_
  _atom_site_type_symbol
  _atom_site_label
  _atom_site_symmetry_multiplicity
  _atom_site_fract_x
  _atom_site_fract_y
  _atom_site_fract_z
  _atom_site_occupancy
  Tl  Tl1       1.0  0.49495  0.68790  0.50000  1.0000
  Tl  Tl2       1.0  0.50505  0.31210  0.50000  1.0000
  Tl  Tl3       1.0  0.50000  0.50000  0.00000  1.0000
  Tl  Tl4       1.0  0.00000  0.00000  0.00000  1.0000
  Tl  Tl5       1.0  0.18790  0.99495  0.50000  1.0000
  Tl  Tl6       1.0  0.99495  0.49495  0.80704  1.0000
  Tl  Tl7       1.0  0.68790  0.18790  0.19296  1.0000
  Tl  Tl8       1.0  0.31210  0.81210  0.80704  1.0000
  Tl  Tl9       1.0  0.00505  0.50505  0.19296  1.0000
  Tl  Tl10      1.0  0.81210  0.00505  0.50000  1.0000
  Cd  Cd1       1.0  0.85871  0.64129  0.50000  1.0000
  Cd  Cd2       1.0  0.64129  0.14129  0.78258  1.0000
  Cd  Cd3       1.0  0.35871  0.85871  0.21742  1.0000
  Cd  Cd4       1.0  0.14129  0.35871  0.50000  1.0000
  Cd  Cd5       1.0  0.25000  0.25000  0.00000  1.0000
  Cd  Cd6       1.0  0.75000  0.75000  0.00000  1.0000
