data_image0
_chemical_formula_structural       Ag10Co6
_chemical_formula_sum              "Ag10 Co6"
_cell_length_a       7.53715
_cell_length_b       7.53715
_cell_length_c       7.53715
_cell_angle_alpha    127.962
_cell_angle_beta     127.962
_cell_angle_gamma    76.6866

_space_group_name_H-M_alt    "P 1"
_space_group_IT_number       1

loop_
  _space_group_symop_operation_xyz
  'x, y, z'

loop_
  _atom_site_type_symbol
  _atom_site_label
  _atom_site_symmetry_multiplicity
  _atom_site_fract_x
  _atom_site_fract_y
  _atom_site_fract_z
  _atom_site_occupancy
  Ag  Ag1       1.0  0.50664  0.67973  0.50000  1.0000
  Ag  Ag2       1.0  0.49336  0.32027  0.50000  1.0000
  Ag  Ag3       1.0  0.50000  0.50000  0.00000  1.0000
  Ag  Ag4       1.0  0.00000  0.00000  0.00000  1.0000
  Ag  Ag5       1.0  0.17973  0.00664  0.50000  1.0000
  Ag  Ag6       1.0  0.00664  0.50664  0.82691  1.0000
  Ag  Ag7       1.0  0.67973  0.17973  0.17309  1.0000
  Ag  Ag8       1.0  0.32027  0.82027  0.82691  1.0000
  Ag  Ag9       1.0  0.99336  0.49336  0.17309  1.0000
  Ag  Ag10      1.0  0.82027  0.99336  0.50000  1.0000
  Co  Co1       1.0  0.88061  0.61939  0.50000  1.0000
  Co  Co2       1.0  0.61939  0.11939  0.73878  1.0000
  Co  Co3       1.0  0.38061  0.88061  0.26122  1.0000
  Co  Co4       1.0  0.11939  0.38061  0.50000  1.0000
  Co  Co5       1.0  0.25000  0.25000  0.00000  1.0000
  Co  Co6       1.0  0.75000  0.75000  0.00000  1.0000
