data_image0
_chemical_formula_structural       Ag8Co12
_chemical_formula_sum              "Ag8 Co12"
_cell_length_a       4.97574
_cell_length_b       4.97574
_cell_length_c       13.2813
_cell_angle_alpha    90
_cell_angle_beta     90
_cell_angle_gamma    120

_space_group_name_H-M_alt    "P 1"
_space_group_IT_number       1

loop_
  _space_group_symop_operation_xyz
  'x, y, z'

loop_
  _atom_site_type_symbol
  _atom_site_label
  _atom_site_symmetry_multiplicity
  _atom_site_fract_x
  _atom_site_fract_y
  _atom_site_fract_z
  _atom_site_occupancy
  Ag  Ag1       1.0  0.00000  0.00000  0.25000  1.0000
  Ag  Ag2       1.0  0.00000  0.00000  0.75000  1.0000
  Ag  Ag3       1.0  0.33333  0.66667  0.25000  1.0000
  Ag  Ag4       1.0  0.66667  0.33333  0.75000  1.0000
  Ag  Ag5       1.0  0.33333  0.66667  0.64398  1.0000
  Ag  Ag6       1.0  0.66667  0.33333  0.14398  1.0000
  Ag  Ag7       1.0  0.66667  0.33333  0.35602  1.0000
  Ag  Ag8       1.0  0.33333  0.66667  0.85602  1.0000
  Co  Co1       1.0  0.17082  0.34164  0.43109  1.0000
  Co  Co2       1.0  0.17082  0.82918  0.43109  1.0000
  Co  Co3       1.0  0.65836  0.82918  0.43109  1.0000
  Co  Co4       1.0  0.82918  0.17082  0.93109  1.0000
  Co  Co5       1.0  0.34164  0.17082  0.93109  1.0000
  Co  Co6       1.0  0.82918  0.65836  0.93109  1.0000
  Co  Co7       1.0  0.82918  0.65836  0.56891  1.0000
  Co  Co8       1.0  0.82918  0.17082  0.56891  1.0000
  Co  Co9       1.0  0.34164  0.17082  0.56891  1.0000
  Co  Co10      1.0  0.17082  0.82918  0.06891  1.0000
  Co  Co11      1.0  0.65836  0.82918  0.06891  1.0000
  Co  Co12      1.0  0.17082  0.34164  0.06891  1.0000
