data_image0
_chemical_formula_structural       Cd8Tl8
_chemical_formula_sum              "Cd8 Tl8"
_cell_length_a       7.34402
_cell_length_b       7.34402
_cell_length_c       9.4525
_cell_angle_alpha    90
_cell_angle_beta     90
_cell_angle_gamma    90

_space_group_name_H-M_alt    "P 1"
_space_group_IT_number       1

loop_
  _space_group_symop_operation_xyz
  'x, y, z'

loop_
  _atom_site_type_symbol
  _atom_site_label
  _atom_site_symmetry_multiplicity
  _atom_site_fract_x
  _atom_site_fract_y
  _atom_site_fract_z
  _atom_site_occupancy
  Cd  Cd1       1.0  0.64475  0.65703  0.00000  1.0000
  Cd  Cd2       1.0  0.34297  0.64475  0.50000  1.0000
  Cd  Cd3       1.0  0.65703  0.35525  0.50000  1.0000
  Cd  Cd4       1.0  0.35525  0.34297  0.00000  1.0000
  Cd  Cd5       1.0  0.50000  0.00000  0.50000  1.0000
  Cd  Cd6       1.0  0.00000  0.50000  0.00000  1.0000
  Cd  Cd7       1.0  0.00000  0.00000  0.75000  1.0000
  Cd  Cd8       1.0  0.00000  0.00000  0.25000  1.0000
  Tl  Tl1       1.0  0.18869  0.35224  0.69129  1.0000
  Tl  Tl2       1.0  0.64776  0.18869  0.19129  1.0000
  Tl  Tl3       1.0  0.35224  0.81131  0.19129  1.0000
  Tl  Tl4       1.0  0.81131  0.64776  0.69129  1.0000
  Tl  Tl5       1.0  0.81131  0.64776  0.30871  1.0000
  Tl  Tl6       1.0  0.35224  0.81131  0.80871  1.0000
  Tl  Tl7       1.0  0.64776  0.18869  0.80871  1.0000
  Tl  Tl8       1.0  0.18869  0.35224  0.30871  1.0000
