data_image0
_chemical_formula_structural       Co8Au16
_chemical_formula_sum              "Co8 Au16"
_cell_length_a       4.45132
_cell_length_b       7.8361
_cell_length_c       11.0978
_cell_angle_alpha    90
_cell_angle_beta     90
_cell_angle_gamma    90

_space_group_name_H-M_alt    "P 1"
_space_group_IT_number       1

loop_
  _space_group_symop_operation_xyz
  'x, y, z'

loop_
  _atom_site_type_symbol
  _atom_site_label
  _atom_site_symmetry_multiplicity
  _atom_site_fract_x
  _atom_site_fract_y
  _atom_site_fract_z
  _atom_site_occupancy
  Co  Co1       1.0  0.50039  0.81052  0.12441  1.0000
  Co  Co2       1.0  0.99961  0.68948  0.62441  1.0000
  Co  Co3       1.0  0.99961  0.31052  0.87559  1.0000
  Co  Co4       1.0  0.50039  0.18948  0.37559  1.0000
  Co  Co5       1.0  0.49961  0.18948  0.87559  1.0000
  Co  Co6       1.0  0.00039  0.31052  0.37559  1.0000
  Co  Co7       1.0  0.00039  0.68948  0.12441  1.0000
  Co  Co8       1.0  0.49961  0.81052  0.62441  1.0000
  Au  Au1       1.0  0.50114  0.50000  0.25000  1.0000
  Au  Au2       1.0  0.99886  0.00000  0.75000  1.0000
  Au  Au3       1.0  0.49886  0.50000  0.75000  1.0000
  Au  Au4       1.0  0.00114  0.00000  0.25000  1.0000
  Au  Au5       1.0  0.50097  0.85377  0.37455  1.0000
  Au  Au6       1.0  0.99903  0.64623  0.87455  1.0000
  Au  Au7       1.0  0.99903  0.35377  0.62545  1.0000
  Au  Au8       1.0  0.50097  0.14623  0.12545  1.0000
  Au  Au9       1.0  0.49903  0.14623  0.62545  1.0000
  Au  Au10      1.0  0.00097  0.35377  0.12545  1.0000
  Au  Au11      1.0  0.00097  0.64623  0.37455  1.0000
  Au  Au12      1.0  0.49903  0.85377  0.87455  1.0000
  Au  Au13      1.0  0.50000  0.50000  0.00000  1.0000
  Au  Au14      1.0  0.00000  0.00000  0.50000  1.0000
  Au  Au15      1.0  0.00000  0.00000  0.00000  1.0000
  Au  Au16      1.0  0.50000  0.50000  0.50000  1.0000
