data_image0
_chemical_formula_structural       Au8Co12
_chemical_formula_sum              "Au8 Co12"
_cell_length_a       5.10971
_cell_length_b       5.10971
_cell_length_c       12.6775
_cell_angle_alpha    90
_cell_angle_beta     90
_cell_angle_gamma    120

_space_group_name_H-M_alt    "P 1"
_space_group_IT_number       1

loop_
  _space_group_symop_operation_xyz
  'x, y, z'

loop_
  _atom_site_type_symbol
  _atom_site_label
  _atom_site_symmetry_multiplicity
  _atom_site_fract_x
  _atom_site_fract_y
  _atom_site_fract_z
  _atom_site_occupancy
  Au  Au1       1.0  0.00000  0.00000  0.25000  1.0000
  Au  Au2       1.0  0.00000  0.00000  0.75000  1.0000
  Au  Au3       1.0  0.33333  0.66667  0.25000  1.0000
  Au  Au4       1.0  0.66667  0.33333  0.75000  1.0000
  Au  Au5       1.0  0.33333  0.66667  0.62776  1.0000
  Au  Au6       1.0  0.66667  0.33333  0.12776  1.0000
  Au  Au7       1.0  0.66667  0.33333  0.37224  1.0000
  Au  Au8       1.0  0.33333  0.66667  0.87224  1.0000
  Co  Co1       1.0  0.16938  0.33877  0.42824  1.0000
  Co  Co2       1.0  0.16938  0.83062  0.42824  1.0000
  Co  Co3       1.0  0.66123  0.83062  0.42824  1.0000
  Co  Co4       1.0  0.83062  0.16938  0.92824  1.0000
  Co  Co5       1.0  0.33877  0.16938  0.92824  1.0000
  Co  Co6       1.0  0.83062  0.66123  0.92824  1.0000
  Co  Co7       1.0  0.83062  0.66123  0.57176  1.0000
  Co  Co8       1.0  0.83062  0.16938  0.57176  1.0000
  Co  Co9       1.0  0.33877  0.16938  0.57176  1.0000
  Co  Co10      1.0  0.16938  0.83062  0.07176  1.0000
  Co  Co11      1.0  0.66123  0.83062  0.07176  1.0000
  Co  Co12      1.0  0.16938  0.33877  0.07176  1.0000
