data_image0
_chemical_formula_structural       Cd4Tl4
_chemical_formula_sum              "Cd4 Tl4"
_cell_length_a       6.12991
_cell_length_b       6.12991
_cell_length_c       6.12991
_cell_angle_alpha    90
_cell_angle_beta     90
_cell_angle_gamma    90

_space_group_name_H-M_alt    "P 1"
_space_group_IT_number       1

loop_
  _space_group_symop_operation_xyz
  'x, y, z'

loop_
  _atom_site_type_symbol
  _atom_site_label
  _atom_site_symmetry_multiplicity
  _atom_site_fract_x
  _atom_site_fract_y
  _atom_site_fract_z
  _atom_site_occupancy
  Cd  Cd1       1.0  0.84308  0.65692  0.34308  1.0000
  Cd  Cd2       1.0  0.65692  0.34308  0.84308  1.0000
  Cd  Cd3       1.0  0.34308  0.84308  0.65692  1.0000
  Cd  Cd4       1.0  0.15692  0.15692  0.15692  1.0000
  Tl  Tl1       1.0  0.15512  0.34488  0.65512  1.0000
  Tl  Tl2       1.0  0.34488  0.65512  0.15512  1.0000
  Tl  Tl3       1.0  0.65512  0.15512  0.34488  1.0000
  Tl  Tl4       1.0  0.84488  0.84488  0.84488  1.0000
