data_image0
_chemical_formula_structural       Cd10Tl6
_chemical_formula_sum              "Cd10 Tl6"
_cell_length_a       9.04162
_cell_length_b       9.04162
_cell_length_c       9.04162
_cell_angle_alpha    96.766
_cell_angle_beta     96.766
_cell_angle_gamma    139.851

_space_group_name_H-M_alt    "P 1"
_space_group_IT_number       1

loop_
  _space_group_symop_operation_xyz
  'x, y, z'

loop_
  _atom_site_type_symbol
  _atom_site_label
  _atom_site_symmetry_multiplicity
  _atom_site_fract_x
  _atom_site_fract_y
  _atom_site_fract_z
  _atom_site_occupancy
  Cd  Cd1       1.0  0.55348  0.24348  0.79696  1.0000
  Cd  Cd2       1.0  0.44652  0.75652  0.20304  1.0000
  Cd  Cd3       1.0  0.75652  0.55348  0.31000  1.0000
  Cd  Cd4       1.0  0.24348  0.44652  0.69000  1.0000
  Cd  Cd5       1.0  0.94652  0.74348  0.69000  1.0000
  Cd  Cd6       1.0  0.25652  0.94652  0.20304  1.0000
  Cd  Cd7       1.0  0.25000  0.75000  0.50000  1.0000
  Cd  Cd8       1.0  0.75000  0.25000  0.50000  1.0000
  Cd  Cd9       1.0  0.05348  0.25652  0.31000  1.0000
  Cd  Cd10      1.0  0.74348  0.05348  0.79696  1.0000
  Tl  Tl1       1.0  0.80649  0.30649  0.11297  1.0000
  Tl  Tl2       1.0  0.69351  0.80649  0.50000  1.0000
  Tl  Tl3       1.0  0.30649  0.19351  0.50000  1.0000
  Tl  Tl4       1.0  0.19351  0.69351  0.88703  1.0000
  Tl  Tl5       1.0  0.75000  0.75000  0.00000  1.0000
  Tl  Tl6       1.0  0.25000  0.25000  0.00000  1.0000
