data_image0
_chemical_formula_structural       Tl2Cd6
_chemical_formula_sum              "Tl2 Cd6"
_cell_length_a       9.67885
_cell_length_b       9.67885
_cell_length_c       9.67885
_cell_angle_alpha    151.438
_cell_angle_beta     151.438
_cell_angle_gamma    40.834

_space_group_name_H-M_alt    "P 1"
_space_group_IT_number       1

loop_
  _space_group_symop_operation_xyz
  'x, y, z'

loop_
  _atom_site_type_symbol
  _atom_site_label
  _atom_site_symmetry_multiplicity
  _atom_site_fract_x
  _atom_site_fract_y
  _atom_site_fract_z
  _atom_site_occupancy
  Tl  Tl1       1.0  0.87521  0.87521  0.00000  1.0000
  Tl  Tl2       1.0  0.12479  0.12479  0.00000  1.0000
  Cd  Cd1       1.0  0.00000  0.50000  0.50000  1.0000
  Cd  Cd2       1.0  0.50000  0.00000  0.50000  1.0000
  Cd  Cd3       1.0  0.75000  0.25000  0.50000  1.0000
  Cd  Cd4       1.0  0.25000  0.75000  0.50000  1.0000
  Cd  Cd5       1.0  0.62617  0.62617  0.00000  1.0000
  Cd  Cd6       1.0  0.37383  0.37383  0.00000  1.0000
