data_image0
_chemical_formula_structural       Cd4Tl12
_chemical_formula_sum              "Cd4 Tl12"
_cell_length_a       11.2202
_cell_length_b       11.2202
_cell_length_c       6.72744
_cell_angle_alpha    90
_cell_angle_beta     90
_cell_angle_gamma    145.786

_space_group_name_H-M_alt    "P 1"
_space_group_IT_number       1

loop_
  _space_group_symop_operation_xyz
  'x, y, z'

loop_
  _atom_site_type_symbol
  _atom_site_label
  _atom_site_symmetry_multiplicity
  _atom_site_fract_x
  _atom_site_fract_y
  _atom_site_fract_z
  _atom_site_occupancy
  Cd  Cd1       1.0  0.63357  0.36643  0.00000  1.0000
  Cd  Cd2       1.0  0.36643  0.63357  0.00000  1.0000
  Cd  Cd3       1.0  0.13357  0.86643  0.50000  1.0000
  Cd  Cd4       1.0  0.86643  0.13357  0.50000  1.0000
  Tl  Tl1       1.0  0.69190  0.69190  0.18149  1.0000
  Tl  Tl2       1.0  0.19190  0.19190  0.31851  1.0000
  Tl  Tl3       1.0  0.80810  0.80810  0.68149  1.0000
  Tl  Tl4       1.0  0.37831  0.62169  0.50000  1.0000
  Tl  Tl5       1.0  0.00719  0.50719  0.75000  1.0000
  Tl  Tl6       1.0  0.87831  0.12169  0.00000  1.0000
  Tl  Tl7       1.0  0.99281  0.49281  0.25000  1.0000
  Tl  Tl8       1.0  0.30810  0.30810  0.81851  1.0000
  Tl  Tl9       1.0  0.62169  0.37831  0.50000  1.0000
  Tl  Tl10      1.0  0.12169  0.87831  0.00000  1.0000
  Tl  Tl11      1.0  0.49281  0.99281  0.25000  1.0000
  Tl  Tl12      1.0  0.50719  0.00719  0.75000  1.0000
