data_image0
_chemical_formula_structural       CdTl4
_chemical_formula_sum              "Cd1 Tl4"
_cell_length_a       6.12457
_cell_length_b       6.12457
_cell_length_c       6.12457
_cell_angle_alpha    98.3432
_cell_angle_beta     98.3432
_cell_angle_gamma    135.218

_space_group_name_H-M_alt    "P 1"
_space_group_IT_number       1

loop_
  _space_group_symop_operation_xyz
  'x, y, z'

loop_
  _atom_site_type_symbol
  _atom_site_label
  _atom_site_symmetry_multiplicity
  _atom_site_fract_x
  _atom_site_fract_y
  _atom_site_fract_z
  _atom_site_occupancy
  Cd  Cd1       1.0  0.00000  0.00000  0.00000  1.0000
  Tl  Tl1       1.0  0.60076  0.20365  0.80441  1.0000
  Tl  Tl2       1.0  0.39924  0.79635  0.19559  1.0000
  Tl  Tl3       1.0  0.79635  0.60076  0.39712  1.0000
  Tl  Tl4       1.0  0.20365  0.39924  0.60288  1.0000
