data_image0
_chemical_formula_structural       Au9Co13
_chemical_formula_sum              "Au9 Co13"
_cell_length_a       8.43781
_cell_length_b       8.43781
_cell_length_c       5.14506
_cell_angle_alpha    90
_cell_angle_beta     90
_cell_angle_gamma    120

_space_group_name_H-M_alt    "P 1"
_space_group_IT_number       1

loop_
  _space_group_symop_operation_xyz
  'x, y, z'

loop_
  _atom_site_type_symbol
  _atom_site_label
  _atom_site_symmetry_multiplicity
  _atom_site_fract_x
  _atom_site_fract_y
  _atom_site_fract_z
  _atom_site_occupancy
  Au  Au1       1.0  0.00000  0.00000  0.50000  1.0000
  Au  Au2       1.0  0.33333  0.66667  0.74103  1.0000
  Au  Au3       1.0  0.66667  0.33333  0.25897  1.0000
  Au  Au4       1.0  0.19518  0.80482  0.26606  1.0000
  Au  Au5       1.0  0.19518  0.39037  0.26606  1.0000
  Au  Au6       1.0  0.60963  0.80482  0.26606  1.0000
  Au  Au7       1.0  0.39037  0.19518  0.73394  1.0000
  Au  Au8       1.0  0.80482  0.60963  0.73394  1.0000
  Au  Au9       1.0  0.80482  0.19518  0.73394  1.0000
  Co  Co1       1.0  0.00000  0.00000  0.00000  1.0000
  Co  Co2       1.0  0.50000  0.00000  0.00000  1.0000
  Co  Co3       1.0  0.00000  0.50000  0.00000  1.0000
  Co  Co4       1.0  0.50000  0.50000  0.00000  1.0000
  Co  Co5       1.0  0.50000  0.00000  0.50000  1.0000
  Co  Co6       1.0  0.00000  0.50000  0.50000  1.0000
  Co  Co7       1.0  0.50000  0.50000  0.50000  1.0000
  Co  Co8       1.0  0.15798  0.84202  0.77799  1.0000
  Co  Co9       1.0  0.15798  0.31595  0.77799  1.0000
  Co  Co10      1.0  0.68405  0.84202  0.77799  1.0000
  Co  Co11      1.0  0.31595  0.15798  0.22201  1.0000
  Co  Co12      1.0  0.84202  0.68405  0.22201  1.0000
  Co  Co13      1.0  0.84202  0.15798  0.22201  1.0000
