data_image0
_chemical_formula_structural       Cd4Tl18
_chemical_formula_sum              "Cd4 Tl18"
_cell_length_a       8.72694
_cell_length_b       8.72694
_cell_length_c       9.48966
_cell_angle_alpha    81.6461
_cell_angle_beta     81.6461
_cell_angle_gamma    105.71

_space_group_name_H-M_alt    "P 1"
_space_group_IT_number       1

loop_
  _space_group_symop_operation_xyz
  'x, y, z'

loop_
  _atom_site_type_symbol
  _atom_site_label
  _atom_site_symmetry_multiplicity
  _atom_site_fract_x
  _atom_site_fract_y
  _atom_site_fract_z
  _atom_site_occupancy
  Cd  Cd1       1.0  0.36690  0.86545  0.12090  1.0000
  Cd  Cd2       1.0  0.13455  0.63310  0.37910  1.0000
  Cd  Cd3       1.0  0.63310  0.13455  0.87910  1.0000
  Cd  Cd4       1.0  0.86545  0.36690  0.62090  1.0000
  Tl  Tl1       1.0  0.42837  0.77180  0.55353  1.0000
  Tl  Tl2       1.0  0.22820  0.57163  0.94647  1.0000
  Tl  Tl3       1.0  0.81924  0.99697  0.58821  1.0000
  Tl  Tl4       1.0  0.00303  0.18076  0.91179  1.0000
  Tl  Tl5       1.0  0.18076  0.00303  0.41179  1.0000
  Tl  Tl6       1.0  0.99697  0.81924  0.08821  1.0000
  Tl  Tl7       1.0  0.22717  0.34669  0.58131  1.0000
  Tl  Tl8       1.0  0.65331  0.77283  0.91869  1.0000
  Tl  Tl9       1.0  0.77283  0.65331  0.41869  1.0000
  Tl  Tl10      1.0  0.34669  0.22717  0.08131  1.0000
  Tl  Tl11      1.0  0.00870  0.29957  0.27424  1.0000
  Tl  Tl12      1.0  0.70043  0.99130  0.22576  1.0000
  Tl  Tl13      1.0  0.99130  0.70043  0.72576  1.0000
  Tl  Tl14      1.0  0.29957  0.00870  0.77424  1.0000
  Tl  Tl15      1.0  0.77180  0.42837  0.05353  1.0000
  Tl  Tl16      1.0  0.57163  0.22820  0.44647  1.0000
  Tl  Tl17      1.0  0.45997  0.54003  0.25000  1.0000
  Tl  Tl18      1.0  0.54003  0.45997  0.75000  1.0000
