data_image0
_chemical_formula_structural       Co3Ag8
_chemical_formula_sum              "Co3 Ag8"
_cell_length_a       5.90331
_cell_length_b       5.90331
_cell_length_c       5.90331
_cell_angle_alpha    88.8938
_cell_angle_beta     88.8938
_cell_angle_gamma    88.8938

_space_group_name_H-M_alt    "P 1"
_space_group_IT_number       1

loop_
  _space_group_symop_operation_xyz
  'x, y, z'

loop_
  _atom_site_type_symbol
  _atom_site_label
  _atom_site_symmetry_multiplicity
  _atom_site_fract_x
  _atom_site_fract_y
  _atom_site_fract_z
  _atom_site_occupancy
  Co  Co1       1.0  0.50000  0.00000  0.50000  1.0000
  Co  Co2       1.0  0.00000  0.50000  0.50000  1.0000
  Co  Co3       1.0  0.50000  0.50000  0.00000  1.0000
  Ag  Ag1       1.0  0.68828  0.87286  0.10550  1.0000
  Ag  Ag2       1.0  0.87286  0.10550  0.68828  1.0000
  Ag  Ag3       1.0  0.10550  0.68828  0.87286  1.0000
  Ag  Ag4       1.0  0.62913  0.62913  0.62913  1.0000
  Ag  Ag5       1.0  0.37087  0.37087  0.37087  1.0000
  Ag  Ag6       1.0  0.89450  0.31172  0.12714  1.0000
  Ag  Ag7       1.0  0.12714  0.89450  0.31172  1.0000
  Ag  Ag8       1.0  0.31172  0.12714  0.89450  1.0000
