data_image0
_chemical_formula_structural       CdTl2
_chemical_formula_sum              "Cd1 Tl2"
_cell_length_a       3.66999
_cell_length_b       3.66999
_cell_length_c       7.65188
_cell_angle_alpha    89.684
_cell_angle_beta     89.684
_cell_angle_gamma    59.4106

_space_group_name_H-M_alt    "P 1"
_space_group_IT_number       1

loop_
  _space_group_symop_operation_xyz
  'x, y, z'

loop_
  _atom_site_type_symbol
  _atom_site_label
  _atom_site_symmetry_multiplicity
  _atom_site_fract_x
  _atom_site_fract_y
  _atom_site_fract_z
  _atom_site_occupancy
  Cd  Cd1       1.0  0.66528  0.33472  0.50000  1.0000
  Tl  Tl1       1.0  0.33566  0.00093  0.81955  1.0000
  Tl  Tl2       1.0  0.99907  0.66434  0.18045  1.0000
