data_image0
_chemical_formula_structural       Co2Au6
_chemical_formula_sum              "Co2 Au6"
_cell_length_a       4.72697
_cell_length_b       5.02443
_cell_length_c       5.61767
_cell_angle_alpha    90
_cell_angle_beta     90
_cell_angle_gamma    90

_space_group_name_H-M_alt    "P 1"
_space_group_IT_number       1

loop_
  _space_group_symop_operation_xyz
  'x, y, z'

loop_
  _atom_site_type_symbol
  _atom_site_label
  _atom_site_symmetry_multiplicity
  _atom_site_fract_x
  _atom_site_fract_y
  _atom_site_fract_z
  _atom_site_occupancy
  Co  Co1       1.0  0.50000  0.34118  0.50000  1.0000
  Co  Co2       1.0  0.00000  0.65882  0.00000  1.0000
  Au  Au1       1.0  0.00000  0.64852  0.50000  1.0000
  Au  Au2       1.0  0.50000  0.35148  0.00000  1.0000
  Au  Au3       1.0  0.00000  0.16298  0.75060  1.0000
  Au  Au4       1.0  0.50000  0.83702  0.74940  1.0000
  Au  Au5       1.0  0.00000  0.16298  0.24940  1.0000
  Au  Au6       1.0  0.50000  0.83702  0.25060  1.0000
