data_image0
_chemical_formula_structural       CoBr2
_chemical_formula_sum              "Co1 Br2"
_cell_length_a       7.3666
_cell_length_b       7.3666
_cell_length_c       7.3666
_cell_angle_alpha    154.184
_cell_angle_beta     154.184
_cell_angle_gamma    36.8325

_space_group_name_H-M_alt    "P 1"
_space_group_IT_number       1

loop_
  _space_group_symop_operation_xyz
  'x, y, z'

loop_
  _atom_site_type_symbol
  _atom_site_label
  _atom_site_symmetry_multiplicity
  _atom_site_fract_x
  _atom_site_fract_y
  _atom_site_fract_z
  _atom_site_occupancy
  Co  Co1       1.0  0.00000  0.00000  0.00000  1.0000
  Br  Br1       1.0  0.61342  0.61342  0.00000  1.0000
  Br  Br2       1.0  0.38658  0.38658  0.00000  1.0000
