data_image0
_chemical_formula_structural       Br10Co6
_chemical_formula_sum              "Br10 Co6"
_cell_length_a       9.11237
_cell_length_b       9.11237
_cell_length_c       9.11237
_cell_angle_alpha    134.91
_cell_angle_beta     134.91
_cell_angle_gamma    65.6695

_space_group_name_H-M_alt    "P 1"
_space_group_IT_number       1

loop_
  _space_group_symop_operation_xyz
  'x, y, z'

loop_
  _atom_site_type_symbol
  _atom_site_label
  _atom_site_symmetry_multiplicity
  _atom_site_fract_x
  _atom_site_fract_y
  _atom_site_fract_z
  _atom_site_occupancy
  Br  Br1       1.0  0.53384  0.65842  0.50000  1.0000
  Br  Br2       1.0  0.46616  0.34158  0.50000  1.0000
  Br  Br3       1.0  0.50000  0.50000  0.00000  1.0000
  Br  Br4       1.0  0.00000  0.00000  0.00000  1.0000
  Br  Br5       1.0  0.15842  0.03384  0.50000  1.0000
  Br  Br6       1.0  0.03384  0.53384  0.87542  1.0000
  Br  Br7       1.0  0.65842  0.15842  0.12458  1.0000
  Br  Br8       1.0  0.34158  0.84158  0.87542  1.0000
  Br  Br9       1.0  0.96616  0.46616  0.12458  1.0000
  Br  Br10      1.0  0.84158  0.96616  0.50000  1.0000
  Co  Co1       1.0  0.70562  0.79438  0.50000  1.0000
  Co  Co2       1.0  0.79438  0.29438  0.08877  1.0000
  Co  Co3       1.0  0.20562  0.70562  0.91123  1.0000
  Co  Co4       1.0  0.29438  0.20562  0.50000  1.0000
  Co  Co5       1.0  0.25000  0.25000  0.00000  1.0000
  Co  Co6       1.0  0.75000  0.75000  0.00000  1.0000
