data_image0
_chemical_formula_structural       Cl12Co8
_chemical_formula_sum              "Cl12 Co8"
_cell_length_a       11.746
_cell_length_b       6.06573
_cell_length_c       6.77952
_cell_angle_alpha    90
_cell_angle_beta     90
_cell_angle_gamma    90

_space_group_name_H-M_alt    "P 1"
_space_group_IT_number       1

loop_
  _space_group_symop_operation_xyz
  'x, y, z'

loop_
  _atom_site_type_symbol
  _atom_site_label
  _atom_site_symmetry_multiplicity
  _atom_site_fract_x
  _atom_site_fract_y
  _atom_site_fract_z
  _atom_site_occupancy
  Cl  Cl1       1.0  0.25000  0.16595  0.39660  1.0000
  Cl  Cl2       1.0  0.75000  0.83405  0.60340  1.0000
  Cl  Cl3       1.0  0.60989  0.34520  0.37535  1.0000
  Cl  Cl4       1.0  0.10989  0.65480  0.62465  1.0000
  Cl  Cl5       1.0  0.39011  0.15480  0.87535  1.0000
  Cl  Cl6       1.0  0.10989  0.15480  0.87535  1.0000
  Cl  Cl7       1.0  0.39011  0.65480  0.62465  1.0000
  Cl  Cl8       1.0  0.89011  0.34520  0.37535  1.0000
  Cl  Cl9       1.0  0.60989  0.84520  0.12465  1.0000
  Cl  Cl10      1.0  0.25000  0.66595  0.10340  1.0000
  Cl  Cl11      1.0  0.89011  0.84520  0.12465  1.0000
  Cl  Cl12      1.0  0.75000  0.33405  0.89660  1.0000
  Co  Co1       1.0  0.25000  0.78863  0.42650  1.0000
  Co  Co2       1.0  0.25000  0.88119  0.79938  1.0000
  Co  Co3       1.0  0.75000  0.11881  0.20062  1.0000
  Co  Co4       1.0  0.75000  0.61881  0.29938  1.0000
  Co  Co5       1.0  0.25000  0.38119  0.70062  1.0000
  Co  Co6       1.0  0.25000  0.28863  0.07350  1.0000
  Co  Co7       1.0  0.75000  0.21137  0.57350  1.0000
  Co  Co8       1.0  0.75000  0.71137  0.92650  1.0000
