data_image0
_chemical_formula_structural       Co4Br4
_chemical_formula_sum              "Co4 Br4"
_cell_length_a       5.49906
_cell_length_b       5.49906
_cell_length_c       5.49906
_cell_angle_alpha    90
_cell_angle_beta     90
_cell_angle_gamma    90

_space_group_name_H-M_alt    "P 1"
_space_group_IT_number       1

loop_
  _space_group_symop_operation_xyz
  'x, y, z'

loop_
  _atom_site_type_symbol
  _atom_site_label
  _atom_site_symmetry_multiplicity
  _atom_site_fract_x
  _atom_site_fract_y
  _atom_site_fract_z
  _atom_site_occupancy
  Co  Co1       1.0  0.85561  0.64439  0.35561  1.0000
  Co  Co2       1.0  0.64439  0.35561  0.85561  1.0000
  Co  Co3       1.0  0.35561  0.85561  0.64439  1.0000
  Co  Co4       1.0  0.14439  0.14439  0.14439  1.0000
  Br  Br1       1.0  0.23362  0.26638  0.73362  1.0000
  Br  Br2       1.0  0.26638  0.73362  0.23362  1.0000
  Br  Br3       1.0  0.73362  0.23362  0.26638  1.0000
  Br  Br4       1.0  0.76638  0.76638  0.76638  1.0000
