data_image0
_chemical_formula_structural       CoBr4
_chemical_formula_sum              "Co1 Br4"
_cell_length_a       7.78653
_cell_length_b       7.78653
_cell_length_c       7.78653
_cell_angle_alpha    91.9931
_cell_angle_beta     91.9931
_cell_angle_gamma    158.504

_space_group_name_H-M_alt    "P 1"
_space_group_IT_number       1

loop_
  _space_group_symop_operation_xyz
  'x, y, z'

loop_
  _atom_site_type_symbol
  _atom_site_label
  _atom_site_symmetry_multiplicity
  _atom_site_fract_x
  _atom_site_fract_y
  _atom_site_fract_z
  _atom_site_occupancy
  Co  Co1       1.0  0.00000  0.00000  0.00000  1.0000
  Br  Br1       1.0  0.53434  0.28700  0.82135  1.0000
  Br  Br2       1.0  0.46566  0.71300  0.17865  1.0000
  Br  Br3       1.0  0.71300  0.53434  0.24734  1.0000
  Br  Br4       1.0  0.28700  0.46566  0.75266  1.0000
