data_image0
_chemical_formula_structural       F6Co2
_chemical_formula_sum              "F6 Co2"
_cell_length_a       2.74296
_cell_length_b       5.54276
_cell_length_c       6.40257
_cell_angle_alpha    90
_cell_angle_beta     90
_cell_angle_gamma    90

_space_group_name_H-M_alt    "P 1"
_space_group_IT_number       1

loop_
  _space_group_symop_operation_xyz
  'x, y, z'

loop_
  _atom_site_type_symbol
  _atom_site_label
  _atom_site_symmetry_multiplicity
  _atom_site_fract_x
  _atom_site_fract_y
  _atom_site_fract_z
  _atom_site_occupancy
  F   F1        1.0  0.00000  0.30837  0.31397  1.0000
  F   F2        1.0  0.00000  0.30837  0.68603  1.0000
  F   F3        1.0  0.50000  0.69163  0.18603  1.0000
  F   F4        1.0  0.50000  0.69163  0.81397  1.0000
  F   F5        1.0  0.00000  0.94481  0.50000  1.0000
  F   F6        1.0  0.50000  0.05519  0.00000  1.0000
  Co  Co1       1.0  0.00000  0.78645  0.00000  1.0000
  Co  Co2       1.0  0.50000  0.21355  0.50000  1.0000
