data_image0
_chemical_formula_structural       Co12Cl16
_chemical_formula_sum              "Co12 Cl16"
_cell_length_a       9.79079
_cell_length_b       9.79079
_cell_length_c       7.9335
_cell_angle_alpha    90
_cell_angle_beta     90
_cell_angle_gamma    120

_space_group_name_H-M_alt    "P 1"
_space_group_IT_number       1

loop_
  _space_group_symop_operation_xyz
  'x, y, z'

loop_
  _atom_site_type_symbol
  _atom_site_label
  _atom_site_symmetry_multiplicity
  _atom_site_fract_x
  _atom_site_fract_y
  _atom_site_fract_z
  _atom_site_occupancy
  Co  Co1       1.0  0.57407  0.07432  0.78989  1.0000
  Co  Co2       1.0  0.50025  0.42593  0.78989  1.0000
  Co  Co3       1.0  0.92568  0.49975  0.78989  1.0000
  Co  Co4       1.0  0.42593  0.50025  0.28989  1.0000
  Co  Co5       1.0  0.49975  0.92568  0.28989  1.0000
  Co  Co6       1.0  0.07432  0.57407  0.28989  1.0000
  Co  Co7       1.0  0.07922  0.26361  0.02991  1.0000
  Co  Co8       1.0  0.18439  0.92078  0.02991  1.0000
  Co  Co9       1.0  0.73639  0.81561  0.02991  1.0000
  Co  Co10      1.0  0.92078  0.18439  0.52991  1.0000
  Co  Co11      1.0  0.81561  0.73639  0.52991  1.0000
  Co  Co12      1.0  0.26361  0.07922  0.52991  1.0000
  Cl  Cl1       1.0  0.04562  0.64815  0.02672  1.0000
  Cl  Cl2       1.0  0.60253  0.95438  0.02672  1.0000
  Cl  Cl3       1.0  0.35185  0.39747  0.02672  1.0000
  Cl  Cl4       1.0  0.95438  0.60253  0.52672  1.0000
  Cl  Cl5       1.0  0.39747  0.35185  0.52672  1.0000
  Cl  Cl6       1.0  0.64815  0.04562  0.52672  1.0000
  Cl  Cl7       1.0  0.02763  0.32971  0.76742  1.0000
  Cl  Cl8       1.0  0.30208  0.97237  0.76742  1.0000
  Cl  Cl9       1.0  0.67029  0.69792  0.76742  1.0000
  Cl  Cl10      1.0  0.97237  0.30208  0.26742  1.0000
  Cl  Cl11      1.0  0.69792  0.67029  0.26742  1.0000
  Cl  Cl12      1.0  0.32971  0.02763  0.26742  1.0000
  Cl  Cl13      1.0  0.00000  0.00000  0.00746  1.0000
  Cl  Cl14      1.0  0.00000  0.00000  0.50746  1.0000
  Cl  Cl15      1.0  0.33333  0.66667  0.36516  1.0000
  Cl  Cl16      1.0  0.66667  0.33333  0.86516  1.0000
