data_image0
_chemical_formula_structural       Co6F8
_chemical_formula_sum              "Co6 F8"
_cell_length_a       6.33805
_cell_length_b       6.33805
_cell_length_c       6.33805
_cell_angle_alpha    60
_cell_angle_beta     60
_cell_angle_gamma    60

_space_group_name_H-M_alt    "P 1"
_space_group_IT_number       1

loop_
  _space_group_symop_operation_xyz
  'x, y, z'

loop_
  _atom_site_type_symbol
  _atom_site_label
  _atom_site_symmetry_multiplicity
  _atom_site_fract_x
  _atom_site_fract_y
  _atom_site_fract_z
  _atom_site_occupancy
  Co  Co1       1.0  0.50000  0.50000  0.50000  1.0000
  Co  Co2       1.0  0.12500  0.12500  0.62500  1.0000
  Co  Co3       1.0  0.12500  0.12500  0.12500  1.0000
  Co  Co4       1.0  0.12500  0.62500  0.12500  1.0000
  Co  Co5       1.0  0.75000  0.75000  0.75000  1.0000
  Co  Co6       1.0  0.62500  0.12500  0.12500  1.0000
  F   F1        1.0  0.88121  0.88121  0.88121  1.0000
  F   F2        1.0  0.88121  0.88121  0.35637  1.0000
  F   F3        1.0  0.36879  0.36879  0.36879  1.0000
  F   F4        1.0  0.36879  0.36879  0.89363  1.0000
  F   F5        1.0  0.88121  0.35637  0.88121  1.0000
  F   F6        1.0  0.36879  0.89363  0.36879  1.0000
  F   F7        1.0  0.89363  0.36879  0.36879  1.0000
  F   F8        1.0  0.35637  0.88121  0.88121  1.0000
