data_image0
_chemical_formula_structural       Br4Co4
_chemical_formula_sum              "Br4 Co4"
_cell_length_a       5.49994
_cell_length_b       5.49994
_cell_length_c       5.49994
_cell_angle_alpha    90
_cell_angle_beta     90
_cell_angle_gamma    90

_space_group_name_H-M_alt    "P 1"
_space_group_IT_number       1

loop_
  _space_group_symop_operation_xyz
  'x, y, z'

loop_
  _atom_site_type_symbol
  _atom_site_label
  _atom_site_symmetry_multiplicity
  _atom_site_fract_x
  _atom_site_fract_y
  _atom_site_fract_z
  _atom_site_occupancy
  Br  Br1       1.0  0.76784  0.76784  0.76784  1.0000
  Br  Br2       1.0  0.73216  0.23216  0.26784  1.0000
  Br  Br3       1.0  0.26784  0.73216  0.23216  1.0000
  Br  Br4       1.0  0.23216  0.26784  0.73216  1.0000
  Co  Co1       1.0  0.14222  0.14222  0.14222  1.0000
  Co  Co2       1.0  0.35778  0.85778  0.64222  1.0000
  Co  Co3       1.0  0.64222  0.35778  0.85778  1.0000
  Co  Co4       1.0  0.85778  0.64222  0.35778  1.0000
