data_image0
_chemical_formula_structural       Co10Br6
_chemical_formula_sum              "Co10 Br6"
_cell_length_a       7.58634
_cell_length_b       7.58634
_cell_length_c       7.58634
_cell_angle_alpha    102.087
_cell_angle_beta     102.087
_cell_angle_gamma    125.535

_space_group_name_H-M_alt    "P 1"
_space_group_IT_number       1

loop_
  _space_group_symop_operation_xyz
  'x, y, z'

loop_
  _atom_site_type_symbol
  _atom_site_label
  _atom_site_symmetry_multiplicity
  _atom_site_fract_x
  _atom_site_fract_y
  _atom_site_fract_z
  _atom_site_occupancy
  Co  Co1       1.0  0.50812  0.17579  0.68391  1.0000
  Co  Co2       1.0  0.49188  0.82421  0.31609  1.0000
  Co  Co3       1.0  0.82421  0.50812  0.33233  1.0000
  Co  Co4       1.0  0.17579  0.49188  0.66767  1.0000
  Co  Co5       1.0  0.99188  0.67579  0.66767  1.0000
  Co  Co6       1.0  0.32421  0.99188  0.31609  1.0000
  Co  Co7       1.0  0.25000  0.75000  0.50000  1.0000
  Co  Co8       1.0  0.75000  0.25000  0.50000  1.0000
  Co  Co9       1.0  0.00812  0.32421  0.33233  1.0000
  Co  Co10      1.0  0.67579  0.00812  0.68391  1.0000
  Br  Br1       1.0  0.75719  0.25719  0.01437  1.0000
  Br  Br2       1.0  0.74281  0.75719  0.50000  1.0000
  Br  Br3       1.0  0.25719  0.24281  0.50000  1.0000
  Br  Br4       1.0  0.24281  0.74281  0.98563  1.0000
  Br  Br5       1.0  0.75000  0.75000  0.00000  1.0000
  Br  Br6       1.0  0.25000  0.25000  0.00000  1.0000
