data_image0
_chemical_formula_structural       Co2Br4
_chemical_formula_sum              "Co2 Br4"
_cell_length_a       7.45994
_cell_length_b       7.45994
_cell_length_c       8.77623
_cell_angle_alpha    90
_cell_angle_beta     90
_cell_angle_gamma    152.813

_space_group_name_H-M_alt    "P 1"
_space_group_IT_number       1

loop_
  _space_group_symop_operation_xyz
  'x, y, z'

loop_
  _atom_site_type_symbol
  _atom_site_label
  _atom_site_symmetry_multiplicity
  _atom_site_fract_x
  _atom_site_fract_y
  _atom_site_fract_z
  _atom_site_occupancy
  Co  Co1       1.0  0.28350  0.28350  0.75000  1.0000
  Co  Co2       1.0  0.71650  0.71650  0.25000  1.0000
  Br  Br1       1.0  0.66730  0.89812  0.75000  1.0000
  Br  Br2       1.0  0.89812  0.66730  0.75000  1.0000
  Br  Br3       1.0  0.10188  0.33270  0.25000  1.0000
  Br  Br4       1.0  0.33270  0.10188  0.25000  1.0000
