data_image0
_chemical_formula_structural       Co2Br2
_chemical_formula_sum              "Co2 Br2"
_cell_length_a       3.55072
_cell_length_b       3.39513
_cell_length_c       7.46415
_cell_angle_alpha    90
_cell_angle_beta     90
_cell_angle_gamma    90

_space_group_name_H-M_alt    "P 1"
_space_group_IT_number       1

loop_
  _space_group_symop_operation_xyz
  'x, y, z'

loop_
  _atom_site_type_symbol
  _atom_site_label
  _atom_site_symmetry_multiplicity
  _atom_site_fract_x
  _atom_site_fract_y
  _atom_site_fract_z
  _atom_site_occupancy
  Co  Co1       1.0  0.00000  0.75000  0.39722  1.0000
  Co  Co2       1.0  0.00000  0.25000  0.60278  1.0000
  Br  Br1       1.0  0.50000  0.75000  0.74104  1.0000
  Br  Br2       1.0  0.50000  0.25000  0.25896  1.0000
