data_image0
_chemical_formula_structural       Co2Cl4
_chemical_formula_sum              "Co2 Cl4"
_cell_length_a       6.93247
_cell_length_b       6.93247
_cell_length_c       7.35998
_cell_angle_alpha    90
_cell_angle_beta     90
_cell_angle_gamma    152.952

_space_group_name_H-M_alt    "P 1"
_space_group_IT_number       1

loop_
  _space_group_symop_operation_xyz
  'x, y, z'

loop_
  _atom_site_type_symbol
  _atom_site_label
  _atom_site_symmetry_multiplicity
  _atom_site_fract_x
  _atom_site_fract_y
  _atom_site_fract_z
  _atom_site_occupancy
  Co  Co1       1.0  0.25089  0.25089  0.75000  1.0000
  Co  Co2       1.0  0.74911  0.74911  0.25000  1.0000
  Cl  Cl1       1.0  0.63869  0.86209  0.75000  1.0000
  Cl  Cl2       1.0  0.86209  0.63869  0.75000  1.0000
  Cl  Cl3       1.0  0.13791  0.36131  0.25000  1.0000
  Cl  Cl4       1.0  0.36131  0.13791  0.25000  1.0000
