data_image0
_chemical_formula_structural       Br8Co4
_chemical_formula_sum              "Br8 Co4"
_cell_length_a       6.76532
_cell_length_b       9.33694
_cell_length_c       7.67123
_cell_angle_alpha    55.6678
_cell_angle_beta     90
_cell_angle_gamma    90

_space_group_name_H-M_alt    "P 1"
_space_group_IT_number       1

loop_
  _space_group_symop_operation_xyz
  'x, y, z'

loop_
  _atom_site_type_symbol
  _atom_site_label
  _atom_site_symmetry_multiplicity
  _atom_site_fract_x
  _atom_site_fract_y
  _atom_site_fract_z
  _atom_site_occupancy
  Br  Br1       1.0  0.20806  0.17245  0.24540  1.0000
  Br  Br2       1.0  0.70806  0.82755  0.25460  1.0000
  Br  Br3       1.0  0.79194  0.82755  0.75460  1.0000
  Br  Br4       1.0  0.29194  0.17245  0.74540  1.0000
  Br  Br5       1.0  0.81795  0.37409  0.79986  1.0000
  Br  Br6       1.0  0.31795  0.62591  0.70014  1.0000
  Br  Br7       1.0  0.18205  0.62591  0.20014  1.0000
  Br  Br8       1.0  0.68205  0.37409  0.29986  1.0000
  Co  Co1       1.0  0.16929  0.34482  0.86567  1.0000
  Co  Co2       1.0  0.66929  0.65518  0.63433  1.0000
  Co  Co3       1.0  0.83071  0.65518  0.13433  1.0000
  Co  Co4       1.0  0.33071  0.34482  0.36567  1.0000
