data_image0
_chemical_formula_structural       F4Co4
_chemical_formula_sum              "F4 Co4"
_cell_length_a       2.63568
_cell_length_b       6.55819
_cell_length_c       5.10278
_cell_angle_alpha    90
_cell_angle_beta     90
_cell_angle_gamma    90

_space_group_name_H-M_alt    "P 1"
_space_group_IT_number       1

loop_
  _space_group_symop_operation_xyz
  'x, y, z'

loop_
  _atom_site_type_symbol
  _atom_site_label
  _atom_site_symmetry_multiplicity
  _atom_site_fract_x
  _atom_site_fract_y
  _atom_site_fract_z
  _atom_site_occupancy
  F   F1        1.0  0.25000  0.66691  0.10366  1.0000
  F   F2        1.0  0.75000  0.33309  0.89634  1.0000
  F   F3        1.0  0.25000  0.16691  0.39634  1.0000
  F   F4        1.0  0.75000  0.83309  0.60366  1.0000
  Co  Co1       1.0  0.25000  0.56003  0.68668  1.0000
  Co  Co2       1.0  0.75000  0.43997  0.31332  1.0000
  Co  Co3       1.0  0.25000  0.06003  0.81332  1.0000
  Co  Co4       1.0  0.75000  0.93997  0.18668  1.0000
