data_image0
_chemical_formula_structural       Co2F4
_chemical_formula_sum              "Co2 F4"
_cell_length_a       4.38389
_cell_length_b       4.38389
_cell_length_c       4.38389
_cell_angle_alpha    111.403
_cell_angle_beta     111.403
_cell_angle_gamma    105.672

_space_group_name_H-M_alt    "P 1"
_space_group_IT_number       1

loop_
  _space_group_symop_operation_xyz
  'x, y, z'

loop_
  _atom_site_type_symbol
  _atom_site_label
  _atom_site_symmetry_multiplicity
  _atom_site_fract_x
  _atom_site_fract_y
  _atom_site_fract_z
  _atom_site_occupancy
  Co  Co1       1.0  0.25000  0.25000  0.00000  1.0000
  Co  Co2       1.0  0.75000  0.75000  1.00000  1.0000
  F   F1        1.0  0.72156  0.22156  0.94313  1.0000
  F   F2        1.0  0.27844  0.77844  0.05687  1.0000
  F   F3        1.0  0.77844  0.72156  0.50000  1.0000
  F   F4        1.0  0.22156  0.27844  0.50000  1.0000
