data_image0
_chemical_formula_structural       Co2F4
_chemical_formula_sum              "Co2 F4"
_cell_length_a       2.92615
_cell_length_b       2.92615
_cell_length_c       17.2328
_cell_angle_alpha    90
_cell_angle_beta     90
_cell_angle_gamma    120

_space_group_name_H-M_alt    "P 1"
_space_group_IT_number       1

loop_
  _space_group_symop_operation_xyz
  'x, y, z'

loop_
  _atom_site_type_symbol
  _atom_site_label
  _atom_site_symmetry_multiplicity
  _atom_site_fract_x
  _atom_site_fract_y
  _atom_site_fract_z
  _atom_site_occupancy
  Co  Co1       1.0  0.66667  0.33333  0.15127  1.0000
  Co  Co2       1.0  0.33333  0.66667  0.84873  1.0000
  F   F1        1.0  0.33333  0.66667  0.22146  1.0000
  F   F2        1.0  0.66667  0.33333  0.91872  1.0000
  F   F3        1.0  0.33333  0.66667  0.08128  1.0000
  F   F4        1.0  0.66667  0.33333  0.77854  1.0000
