data_image0
_chemical_formula_structural       Co3Br4
_chemical_formula_sum              "Co3 Br4"
_cell_length_a       7.40802
_cell_length_b       7.40802
_cell_length_c       7.15208
_cell_angle_alpha    55.4499
_cell_angle_beta     55.4499
_cell_angle_gamma    29.3613

_space_group_name_H-M_alt    "P 1"
_space_group_IT_number       1

loop_
  _space_group_symop_operation_xyz
  'x, y, z'

loop_
  _atom_site_type_symbol
  _atom_site_label
  _atom_site_symmetry_multiplicity
  _atom_site_fract_x
  _atom_site_fract_y
  _atom_site_fract_z
  _atom_site_occupancy
  Co  Co1       1.0  0.00000  0.00000  0.00000  1.0000
  Co  Co2       1.0  0.22485  0.22485  0.73686  1.0000
  Co  Co3       1.0  0.77515  0.77515  0.26314  1.0000
  Br  Br1       1.0  0.13150  0.13150  0.52729  1.0000
  Br  Br2       1.0  0.86850  0.86850  0.47271  1.0000
  Br  Br3       1.0  0.61982  0.61982  0.03376  1.0000
  Br  Br4       1.0  0.38018  0.38018  0.96624  1.0000
