data_image0
_chemical_formula_structural       Br3Co2
_chemical_formula_sum              "Br3 Co2"
_cell_length_a       3.62976
_cell_length_b       3.62976
_cell_length_c       9.46847
_cell_angle_alpha    90
_cell_angle_beta     90
_cell_angle_gamma    120

_space_group_name_H-M_alt    "P 1"
_space_group_IT_number       1

loop_
  _space_group_symop_operation_xyz
  'x, y, z'

loop_
  _atom_site_type_symbol
  _atom_site_label
  _atom_site_symmetry_multiplicity
  _atom_site_fract_x
  _atom_site_fract_y
  _atom_site_fract_z
  _atom_site_occupancy
  Br  Br1       1.0  0.00000  0.00000  0.00000  1.0000
  Br  Br2       1.0  0.33333  0.66667  0.69999  1.0000
  Br  Br3       1.0  0.66667  0.33333  0.30001  1.0000
  Co  Co1       1.0  0.33333  0.66667  0.18268  1.0000
  Co  Co2       1.0  0.66667  0.33333  0.81732  1.0000
