data_image0
_chemical_formula_structural       Co8Cl12
_chemical_formula_sum              "Co8 Cl12"
_cell_length_a       3.47767
_cell_length_b       10.2522
_cell_length_c       14.1635
_cell_angle_alpha    90
_cell_angle_beta     90
_cell_angle_gamma    90

_space_group_name_H-M_alt    "P 1"
_space_group_IT_number       1

loop_
  _space_group_symop_operation_xyz
  'x, y, z'

loop_
  _atom_site_type_symbol
  _atom_site_label
  _atom_site_symmetry_multiplicity
  _atom_site_fract_x
  _atom_site_fract_y
  _atom_site_fract_z
  _atom_site_occupancy
  Co  Co1       1.0  0.25000  0.92343  0.93744  1.0000
  Co  Co2       1.0  0.75000  0.07657  0.06256  1.0000
  Co  Co3       1.0  0.75000  0.42343  0.56256  1.0000
  Co  Co4       1.0  0.25000  0.57657  0.43744  1.0000
  Co  Co5       1.0  0.25000  0.05375  0.54184  1.0000
  Co  Co6       1.0  0.75000  0.94625  0.45816  1.0000
  Co  Co7       1.0  0.75000  0.55375  0.95816  1.0000
  Co  Co8       1.0  0.25000  0.44625  0.04184  1.0000
  Cl  Cl1       1.0  0.25000  0.26737  0.59740  1.0000
  Cl  Cl2       1.0  0.75000  0.73263  0.40260  1.0000
  Cl  Cl3       1.0  0.75000  0.76737  0.90260  1.0000
  Cl  Cl4       1.0  0.25000  0.23263  0.09740  1.0000
  Cl  Cl5       1.0  0.25000  0.05312  0.37904  1.0000
  Cl  Cl6       1.0  0.75000  0.94688  0.62096  1.0000
  Cl  Cl7       1.0  0.75000  0.55312  0.12096  1.0000
  Cl  Cl8       1.0  0.25000  0.44688  0.87904  1.0000
  Cl  Cl9       1.0  0.25000  0.92337  0.10111  1.0000
  Cl  Cl10      1.0  0.75000  0.07663  0.89889  1.0000
  Cl  Cl11      1.0  0.75000  0.42337  0.39889  1.0000
  Cl  Cl12      1.0  0.25000  0.57663  0.60111  1.0000
