data_image0
_chemical_formula_structural       Co4Br12
_chemical_formula_sum              "Co4 Br12"
_cell_length_a       7.86946
_cell_length_b       7.86946
_cell_length_c       10.7002
_cell_angle_alpha    90
_cell_angle_beta     90
_cell_angle_gamma    89.367

_space_group_name_H-M_alt    "P 1"
_space_group_IT_number       1

loop_
  _space_group_symop_operation_xyz
  'x, y, z'

loop_
  _atom_site_type_symbol
  _atom_site_label
  _atom_site_symmetry_multiplicity
  _atom_site_fract_x
  _atom_site_fract_y
  _atom_site_fract_z
  _atom_site_occupancy
  Co  Co1       1.0  0.62767  0.37233  0.00000  1.0000
  Co  Co2       1.0  0.37233  0.62767  0.00000  1.0000
  Co  Co3       1.0  0.12767  0.87233  0.50000  1.0000
  Co  Co4       1.0  0.87233  0.12767  0.50000  1.0000
  Br  Br1       1.0  0.66849  0.66849  0.01467  1.0000
  Br  Br2       1.0  0.16849  0.16849  0.48533  1.0000
  Br  Br3       1.0  0.83151  0.83151  0.51467  1.0000
  Br  Br4       1.0  0.33748  0.66252  0.50000  1.0000
  Br  Br5       1.0  0.76087  0.26087  0.75000  1.0000
  Br  Br6       1.0  0.83748  0.16252  0.00000  1.0000
  Br  Br7       1.0  0.23913  0.73913  0.25000  1.0000
  Br  Br8       1.0  0.33151  0.33151  0.98533  1.0000
  Br  Br9       1.0  0.66252  0.33748  0.50000  1.0000
  Br  Br10      1.0  0.16252  0.83748  0.00000  1.0000
  Br  Br11      1.0  0.73913  0.23913  0.25000  1.0000
  Br  Br12      1.0  0.26087  0.76087  0.75000  1.0000
