data_image0
_chemical_formula_structural       Co8Br12
_chemical_formula_sum              "Co8 Br12"
_cell_length_a       3.64642
_cell_length_b       10.5076
_cell_length_c       14.9954
_cell_angle_alpha    90
_cell_angle_beta     90
_cell_angle_gamma    90

_space_group_name_H-M_alt    "P 1"
_space_group_IT_number       1

loop_
  _space_group_symop_operation_xyz
  'x, y, z'

loop_
  _atom_site_type_symbol
  _atom_site_label
  _atom_site_symmetry_multiplicity
  _atom_site_fract_x
  _atom_site_fract_y
  _atom_site_fract_z
  _atom_site_occupancy
  Co  Co1       1.0  0.25000  0.93020  0.93918  1.0000
  Co  Co2       1.0  0.75000  0.06980  0.06082  1.0000
  Co  Co3       1.0  0.75000  0.43020  0.56082  1.0000
  Co  Co4       1.0  0.25000  0.56980  0.43918  1.0000
  Co  Co5       1.0  0.25000  0.04816  0.53931  1.0000
  Co  Co6       1.0  0.75000  0.95184  0.46069  1.0000
  Co  Co7       1.0  0.75000  0.54816  0.96069  1.0000
  Co  Co8       1.0  0.25000  0.45184  0.03931  1.0000
  Br  Br1       1.0  0.25000  0.26721  0.60191  1.0000
  Br  Br2       1.0  0.75000  0.73279  0.39809  1.0000
  Br  Br3       1.0  0.75000  0.76721  0.89809  1.0000
  Br  Br4       1.0  0.25000  0.23279  0.10191  1.0000
  Br  Br5       1.0  0.25000  0.05930  0.37750  1.0000
  Br  Br6       1.0  0.75000  0.94070  0.62250  1.0000
  Br  Br7       1.0  0.75000  0.55930  0.12250  1.0000
  Br  Br8       1.0  0.25000  0.44070  0.87750  1.0000
  Br  Br9       1.0  0.25000  0.91138  0.10142  1.0000
  Br  Br10      1.0  0.75000  0.08862  0.89858  1.0000
  Br  Br11      1.0  0.75000  0.41138  0.39858  1.0000
  Br  Br12      1.0  0.25000  0.58862  0.60142  1.0000
