data_image0
_chemical_formula_structural       Co4Br18
_chemical_formula_sum              "Co4 Br18"
_cell_length_a       8.45936
_cell_length_b       8.45936
_cell_length_c       11.4503
_cell_angle_alpha    86.1789
_cell_angle_beta     86.1789
_cell_angle_gamma    104.462

_space_group_name_H-M_alt    "P 1"
_space_group_IT_number       1

loop_
  _space_group_symop_operation_xyz
  'x, y, z'

loop_
  _atom_site_type_symbol
  _atom_site_label
  _atom_site_symmetry_multiplicity
  _atom_site_fract_x
  _atom_site_fract_y
  _atom_site_fract_z
  _atom_site_occupancy
  Co  Co1       1.0  0.34479  0.84317  0.08600  1.0000
  Co  Co2       1.0  0.15683  0.65521  0.41400  1.0000
  Co  Co3       1.0  0.65521  0.15683  0.91400  1.0000
  Co  Co4       1.0  0.84317  0.34479  0.58600  1.0000
  Br  Br1       1.0  0.35618  0.62546  0.54562  1.0000
  Br  Br2       1.0  0.37454  0.64382  0.95438  1.0000
  Br  Br3       1.0  0.71900  0.06831  0.57038  1.0000
  Br  Br4       1.0  0.93169  0.28100  0.92962  1.0000
  Br  Br5       1.0  0.28100  0.93169  0.42962  1.0000
  Br  Br6       1.0  0.06831  0.71900  0.07038  1.0000
  Br  Br7       1.0  0.05203  0.29146  0.70049  1.0000
  Br  Br8       1.0  0.70854  0.94797  0.79951  1.0000
  Br  Br9       1.0  0.94797  0.70854  0.29951  1.0000
  Br  Br10      1.0  0.29146  0.05203  0.20049  1.0000
  Br  Br11      1.0  0.04594  0.36325  0.42014  1.0000
  Br  Br12      1.0  0.63675  0.95406  0.07986  1.0000
  Br  Br13      1.0  0.95406  0.63675  0.57986  1.0000
  Br  Br14      1.0  0.36325  0.04594  0.92014  1.0000
  Br  Br15      1.0  0.62546  0.35618  0.04562  1.0000
  Br  Br16      1.0  0.64382  0.37454  0.45438  1.0000
  Br  Br17      1.0  0.35039  0.64961  0.25000  1.0000
  Br  Br18      1.0  0.64961  0.35039  0.75000  1.0000
