data_image0
_chemical_formula_structural       Co6Br10
_chemical_formula_sum              "Co6 Br10"
_cell_length_a       3.66646
_cell_length_b       9.16759
_cell_length_c       13.8099
_cell_angle_alpha    90
_cell_angle_beta     90
_cell_angle_gamma    90

_space_group_name_H-M_alt    "P 1"
_space_group_IT_number       1

loop_
  _space_group_symop_operation_xyz
  'x, y, z'

loop_
  _atom_site_type_symbol
  _atom_site_label
  _atom_site_symmetry_multiplicity
  _atom_site_fract_x
  _atom_site_fract_y
  _atom_site_fract_z
  _atom_site_occupancy
  Co  Co1       1.0  0.50000  0.30197  0.94846  1.0000
  Co  Co2       1.0  0.50000  0.80197  0.55154  1.0000
  Co  Co3       1.0  0.00000  0.50000  0.50000  1.0000
  Co  Co4       1.0  0.00000  0.00000  0.00000  1.0000
  Co  Co5       1.0  0.50000  0.69803  0.05154  1.0000
  Co  Co6       1.0  0.50000  0.19803  0.44846  1.0000
  Br  Br1       1.0  0.50000  0.64600  0.41004  1.0000
  Br  Br2       1.0  0.50000  0.35400  0.58996  1.0000
  Br  Br3       1.0  0.00000  0.18936  0.85213  1.0000
  Br  Br4       1.0  0.50000  0.85400  0.91004  1.0000
  Br  Br5       1.0  0.00000  0.31064  0.35213  1.0000
  Br  Br6       1.0  0.00000  0.81064  0.14787  1.0000
  Br  Br7       1.0  0.00000  0.68936  0.64787  1.0000
  Br  Br8       1.0  0.00000  0.50000  0.00000  1.0000
  Br  Br9       1.0  0.00000  0.00000  0.50000  1.0000
  Br  Br10      1.0  0.50000  0.14600  0.08996  1.0000
