data_image0
_chemical_formula_structural       Cl2Co2
_chemical_formula_sum              "Cl2 Co2"
_cell_length_a       3.62091
_cell_length_b       3.62091
_cell_length_c       6.36941
_cell_angle_alpha    90
_cell_angle_beta     90
_cell_angle_gamma    120

_space_group_name_H-M_alt    "P 1"
_space_group_IT_number       1

loop_
  _space_group_symop_operation_xyz
  'x, y, z'

loop_
  _atom_site_type_symbol
  _atom_site_label
  _atom_site_symmetry_multiplicity
  _atom_site_fract_x
  _atom_site_fract_y
  _atom_site_fract_z
  _atom_site_occupancy
  Cl  Cl1       1.0  0.66667  0.33333  0.49604  1.0000
  Cl  Cl2       1.0  0.33333  0.66667  0.99604  1.0000
  Co  Co1       1.0  0.66667  0.33333  0.85396  1.0000
  Co  Co2       1.0  0.33333  0.66667  0.35396  1.0000
