data_image0
_chemical_formula_structural       Co3F4
_chemical_formula_sum              "Co3 F4"
_cell_length_a       5.53156
_cell_length_b       5.53156
_cell_length_c       5.61482
_cell_angle_alpha    59.355
_cell_angle_beta     59.355
_cell_angle_gamma    35.5596

_space_group_name_H-M_alt    "P 1"
_space_group_IT_number       1

loop_
  _space_group_symop_operation_xyz
  'x, y, z'

loop_
  _atom_site_type_symbol
  _atom_site_label
  _atom_site_symmetry_multiplicity
  _atom_site_fract_x
  _atom_site_fract_y
  _atom_site_fract_z
  _atom_site_occupancy
  Co  Co1       1.0  0.22185  0.22185  0.78190  1.0000
  Co  Co2       1.0  0.77815  0.77815  0.21810  1.0000
  Co  Co3       1.0  0.50000  0.50000  0.50000  1.0000
  F   F1        1.0  0.87423  0.87423  0.46155  1.0000
  F   F2        1.0  0.12577  0.12577  0.53845  1.0000
  F   F3        1.0  0.36701  0.36701  0.95757  1.0000
  F   F4        1.0  0.63299  0.63299  0.04243  1.0000
