data_image0
_chemical_formula_structural       Co8Hg16
_chemical_formula_sum              "Co8 Hg16"
_cell_length_a       2.89011
_cell_length_b       7.11499
_cell_length_c       25.1653
_cell_angle_alpha    90
_cell_angle_beta     90
_cell_angle_gamma    90

_space_group_name_H-M_alt    "P 1"
_space_group_IT_number       1

loop_
  _space_group_symop_operation_xyz
  'x, y, z'

loop_
  _atom_site_type_symbol
  _atom_site_label
  _atom_site_symmetry_multiplicity
  _atom_site_fract_x
  _atom_site_fract_y
  _atom_site_fract_z
  _atom_site_occupancy
  Co  Co1       1.0  0.25000  0.96764  0.81843  1.0000
  Co  Co2       1.0  0.75000  0.03236  0.18157  1.0000
  Co  Co3       1.0  0.75000  0.46764  0.68157  1.0000
  Co  Co4       1.0  0.25000  0.53236  0.31843  1.0000
  Co  Co5       1.0  0.25000  0.97975  0.53834  1.0000
  Co  Co6       1.0  0.75000  0.02025  0.46166  1.0000
  Co  Co7       1.0  0.75000  0.47975  0.96166  1.0000
  Co  Co8       1.0  0.25000  0.52025  0.03834  1.0000
  Hg  Hg1       1.0  0.25000  0.68304  0.88725  1.0000
  Hg  Hg2       1.0  0.75000  0.31696  0.11275  1.0000
  Hg  Hg3       1.0  0.75000  0.18304  0.61275  1.0000
  Hg  Hg4       1.0  0.25000  0.81696  0.38725  1.0000
  Hg  Hg5       1.0  0.25000  0.26319  0.24465  1.0000
  Hg  Hg6       1.0  0.75000  0.73681  0.75535  1.0000
  Hg  Hg7       1.0  0.75000  0.76319  0.25535  1.0000
  Hg  Hg8       1.0  0.25000  0.23681  0.74465  1.0000
  Hg  Hg9       1.0  0.25000  0.17559  0.99220  1.0000
  Hg  Hg10      1.0  0.75000  0.82441  0.00780  1.0000
  Hg  Hg11      1.0  0.75000  0.67559  0.50780  1.0000
  Hg  Hg12      1.0  0.25000  0.32441  0.49220  1.0000
  Hg  Hg13      1.0  0.25000  0.78189  0.12416  1.0000
  Hg  Hg14      1.0  0.75000  0.21811  0.87584  1.0000
  Hg  Hg15      1.0  0.75000  0.28189  0.37584  1.0000
  Hg  Hg16      1.0  0.25000  0.71811  0.62416  1.0000
