data_image0
_chemical_formula_structural       Co4F8
_chemical_formula_sum              "Co4 F8"
_cell_length_a       9.5253
_cell_length_b       9.5253
_cell_length_c       5.07163
_cell_angle_alpha    90
_cell_angle_beta     90
_cell_angle_gamma    161.544

_space_group_name_H-M_alt    "P 1"
_space_group_IT_number       1

loop_
  _space_group_symop_operation_xyz
  'x, y, z'

loop_
  _atom_site_type_symbol
  _atom_site_label
  _atom_site_symmetry_multiplicity
  _atom_site_fract_x
  _atom_site_fract_y
  _atom_site_fract_z
  _atom_site_occupancy
  Co  Co1       1.0  0.56631  0.43369  0.86244  1.0000
  Co  Co2       1.0  0.43369  0.56631  0.36244  1.0000
  Co  Co3       1.0  0.18937  0.81063  0.36498  1.0000
  Co  Co4       1.0  0.81063  0.18937  0.86498  1.0000
  F   F1        1.0  0.01440  0.98560  0.03584  1.0000
  F   F2        1.0  0.98560  0.01440  0.53584  1.0000
  F   F3        1.0  0.12142  0.87858  0.68425  1.0000
  F   F4        1.0  0.87858  0.12142  0.18425  1.0000
  F   F5        1.0  0.25740  0.74260  0.04973  1.0000
  F   F6        1.0  0.74260  0.25740  0.54973  1.0000
  F   F7        1.0  0.63478  0.36522  0.18847  1.0000
  F   F8        1.0  0.36522  0.63478  0.68847  1.0000
