data_image0
_chemical_formula_structural       Co2F6
_chemical_formula_sum              "Co2 F6"
_cell_length_a       3.50395
_cell_length_b       5.25001
_cell_length_c       6.08133
_cell_angle_alpha    90
_cell_angle_beta     90
_cell_angle_gamma    90

_space_group_name_H-M_alt    "P 1"
_space_group_IT_number       1

loop_
  _space_group_symop_operation_xyz
  'x, y, z'

loop_
  _atom_site_type_symbol
  _atom_site_label
  _atom_site_symmetry_multiplicity
  _atom_site_fract_x
  _atom_site_fract_y
  _atom_site_fract_z
  _atom_site_occupancy
  Co  Co1       1.0  0.50000  0.22644  0.50000  1.0000
  Co  Co2       1.0  0.00000  0.77356  0.00000  1.0000
  F   F1        1.0  0.50000  0.16952  0.78464  1.0000
  F   F2        1.0  0.50000  0.16952  0.21536  1.0000
  F   F3        1.0  0.00000  0.83048  0.71536  1.0000
  F   F4        1.0  0.00000  0.83048  0.28464  1.0000
  F   F5        1.0  0.00000  0.38998  0.50000  1.0000
  F   F6        1.0  0.50000  0.61002  0.00000  1.0000
