data_image0
_chemical_formula_structural       F10Co6
_chemical_formula_sum              "F10 Co6"
_cell_length_a       6.88365
_cell_length_b       6.88365
_cell_length_c       6.88365
_cell_angle_alpha    132.842
_cell_angle_beta     132.842
_cell_angle_gamma    68.9029

_space_group_name_H-M_alt    "P 1"
_space_group_IT_number       1

loop_
  _space_group_symop_operation_xyz
  'x, y, z'

loop_
  _atom_site_type_symbol
  _atom_site_label
  _atom_site_symmetry_multiplicity
  _atom_site_fract_x
  _atom_site_fract_y
  _atom_site_fract_z
  _atom_site_occupancy
  F   F1        1.0  0.54327  0.65827  0.50000  1.0000
  F   F2        1.0  0.45673  0.34173  0.50000  1.0000
  F   F3        1.0  0.50000  0.50000  0.00000  1.0000
  F   F4        1.0  0.00000  0.00000  0.00000  1.0000
  F   F5        1.0  0.15827  0.04327  0.50000  1.0000
  F   F6        1.0  0.04327  0.54327  0.88500  1.0000
  F   F7        1.0  0.65827  0.15827  0.11500  1.0000
  F   F8        1.0  0.34173  0.84173  0.88500  1.0000
  F   F9        1.0  0.95673  0.45673  0.11500  1.0000
  F   F10       1.0  0.84173  0.95673  0.50000  1.0000
  Co  Co1       1.0  0.83135  0.66865  0.50000  1.0000
  Co  Co2       1.0  0.66865  0.16865  0.83731  1.0000
  Co  Co3       1.0  0.33135  0.83135  0.16269  1.0000
  Co  Co4       1.0  0.16865  0.33135  0.50000  1.0000
  Co  Co5       1.0  0.25000  0.25000  0.00000  1.0000
  Co  Co6       1.0  0.75000  0.75000  0.00000  1.0000
