data_image0
_chemical_formula_structural       F8Co4
_chemical_formula_sum              "F8 Co4"
_cell_length_a       7.11904
_cell_length_b       3.55769
_cell_length_c       6.15309
_cell_angle_alpha    54.8834
_cell_angle_beta     90
_cell_angle_gamma    90

_space_group_name_H-M_alt    "P 1"
_space_group_IT_number       1

loop_
  _space_group_symop_operation_xyz
  'x, y, z'

loop_
  _atom_site_type_symbol
  _atom_site_label
  _atom_site_symmetry_multiplicity
  _atom_site_fract_x
  _atom_site_fract_y
  _atom_site_fract_z
  _atom_site_occupancy
  F   F1        1.0  0.37440  0.26193  0.26576  1.0000
  F   F2        1.0  0.62560  0.26193  0.76576  1.0000
  F   F3        1.0  0.37562  0.76158  0.76574  1.0000
  F   F4        1.0  0.87398  0.26617  0.26203  1.0000
  F   F5        1.0  0.62438  0.76158  0.26574  1.0000
  F   F6        1.0  0.12602  0.26617  0.76203  1.0000
  F   F7        1.0  0.87603  0.76607  0.76182  1.0000
  F   F8        1.0  0.12397  0.76607  0.26182  1.0000
  Co  Co1       1.0  0.37474  0.01326  0.01454  1.0000
  Co  Co2       1.0  0.62526  0.01326  0.51454  1.0000
  Co  Co3       1.0  0.87469  0.01429  0.01340  1.0000
  Co  Co4       1.0  0.12531  0.01429  0.51340  1.0000
