data_image0
_chemical_formula_structural       Co6F16
_chemical_formula_sum              "Co6 F16"
_cell_length_a       4.77223
_cell_length_b       5.06372
_cell_length_c       10.8168
_cell_angle_alpha    76.0332
_cell_angle_beta     90
_cell_angle_gamma    90

_space_group_name_H-M_alt    "P 1"
_space_group_IT_number       1

loop_
  _space_group_symop_operation_xyz
  'x, y, z'

loop_
  _atom_site_type_symbol
  _atom_site_label
  _atom_site_symmetry_multiplicity
  _atom_site_fract_x
  _atom_site_fract_y
  _atom_site_fract_z
  _atom_site_occupancy
  Co  Co1       1.0  0.45602  0.74953  0.75001  1.0000
  Co  Co2       1.0  0.54398  0.25047  0.24999  1.0000
  Co  Co3       1.0  0.50000  0.00000  0.00000  1.0000
  Co  Co4       1.0  0.95602  0.25047  0.74999  1.0000
  Co  Co5       1.0  0.04398  0.74953  0.25001  1.0000
  Co  Co6       1.0  0.00000  0.00000  0.50000  1.0000
  F   F1        1.0  0.72820  0.58701  0.19150  1.0000
  F   F2        1.0  0.64971  0.08032  0.68953  1.0000
  F   F3        1.0  0.60381  0.72375  0.91141  1.0000
  F   F4        1.0  0.68919  0.20882  0.41379  1.0000
  F   F5        1.0  0.81081  0.20882  0.91379  1.0000
  F   F6        1.0  0.85029  0.08032  0.18953  1.0000
  F   F7        1.0  0.89619  0.72375  0.41141  1.0000
  F   F8        1.0  0.77180  0.58701  0.69150  1.0000
  F   F9        1.0  0.14971  0.91968  0.81047  1.0000
  F   F10       1.0  0.18919  0.79118  0.08621  1.0000
  F   F11       1.0  0.10381  0.27625  0.58859  1.0000
  F   F12       1.0  0.22820  0.41299  0.30850  1.0000
  F   F13       1.0  0.39619  0.27625  0.08859  1.0000
  F   F14       1.0  0.27180  0.41299  0.80850  1.0000
  F   F15       1.0  0.35029  0.91968  0.31047  1.0000
  F   F16       1.0  0.31081  0.79118  0.58621  1.0000
