data_image0
_chemical_formula_structural       Hg4Co2
_chemical_formula_sum              "Hg4 Co2"
_cell_length_a       5.45724
_cell_length_b       5.45724
_cell_length_c       5.45724
_cell_angle_alpha    106.101
_cell_angle_beta     106.101
_cell_angle_gamma    116.446

_space_group_name_H-M_alt    "P 1"
_space_group_IT_number       1

loop_
  _space_group_symop_operation_xyz
  'x, y, z'

loop_
  _atom_site_type_symbol
  _atom_site_label
  _atom_site_symmetry_multiplicity
  _atom_site_fract_x
  _atom_site_fract_y
  _atom_site_fract_z
  _atom_site_occupancy
  Hg  Hg1       1.0  0.25189  0.75189  0.00378  1.0000
  Hg  Hg2       1.0  0.24811  0.25189  0.50000  1.0000
  Hg  Hg3       1.0  0.75189  0.74811  0.50000  1.0000
  Hg  Hg4       1.0  0.74811  0.24811  0.99622  1.0000
  Co  Co1       1.0  0.75000  0.75000  0.00000  1.0000
  Co  Co2       1.0  0.25000  0.25000  0.00000  1.0000
