data_image0
_chemical_formula_structural       Co4F12
_chemical_formula_sum              "Co4 F12"
_cell_length_a       5.56709
_cell_length_b       5.56709
_cell_length_c       5.77372
_cell_angle_alpha    90
_cell_angle_beta     90
_cell_angle_gamma    115.59

_space_group_name_H-M_alt    "P 1"
_space_group_IT_number       1

loop_
  _space_group_symop_operation_xyz
  'x, y, z'

loop_
  _atom_site_type_symbol
  _atom_site_label
  _atom_site_symmetry_multiplicity
  _atom_site_fract_x
  _atom_site_fract_y
  _atom_site_fract_z
  _atom_site_occupancy
  Co  Co1       1.0  0.67144  0.32856  0.00000  1.0000
  Co  Co2       1.0  0.32856  0.67144  0.00000  1.0000
  Co  Co3       1.0  0.17144  0.82856  0.50000  1.0000
  Co  Co4       1.0  0.82856  0.17144  0.50000  1.0000
  F   F1        1.0  0.64475  0.64475  0.12664  1.0000
  F   F2        1.0  0.14475  0.14475  0.37336  1.0000
  F   F3        1.0  0.85525  0.85525  0.62664  1.0000
  F   F4        1.0  0.36283  0.63717  0.50000  1.0000
  F   F5        1.0  0.99372  0.49372  0.75000  1.0000
  F   F6        1.0  0.86283  0.13717  0.00000  1.0000
  F   F7        1.0  0.00628  0.50628  0.25000  1.0000
  F   F8        1.0  0.35525  0.35525  0.87336  1.0000
  F   F9        1.0  0.63717  0.36283  0.50000  1.0000
  F   F10       1.0  0.13717  0.86283  0.00000  1.0000
  F   F11       1.0  0.50628  0.00628  0.25000  1.0000
  F   F12       1.0  0.49372  0.99372  0.75000  1.0000
