data_image0
_chemical_formula_structural       Co10F6
_chemical_formula_sum              "Co10 F6"
_cell_length_a       6.5573
_cell_length_b       6.5573
_cell_length_c       6.5573
_cell_angle_alpha    98.5823
_cell_angle_beta     98.5823
_cell_angle_gamma    134.551

_space_group_name_H-M_alt    "P 1"
_space_group_IT_number       1

loop_
  _space_group_symop_operation_xyz
  'x, y, z'

loop_
  _atom_site_type_symbol
  _atom_site_label
  _atom_site_symmetry_multiplicity
  _atom_site_fract_x
  _atom_site_fract_y
  _atom_site_fract_z
  _atom_site_occupancy
  Co  Co1       1.0  0.53031  0.23650  0.76682  1.0000
  Co  Co2       1.0  0.46969  0.76350  0.23318  1.0000
  Co  Co3       1.0  0.76350  0.53031  0.29381  1.0000
  Co  Co4       1.0  0.23650  0.46969  0.70619  1.0000
  Co  Co5       1.0  0.96969  0.73650  0.70619  1.0000
  Co  Co6       1.0  0.26350  0.96969  0.23318  1.0000
  Co  Co7       1.0  0.25000  0.75000  0.50000  1.0000
  Co  Co8       1.0  0.75000  0.25000  0.50000  1.0000
  Co  Co9       1.0  0.03031  0.26350  0.29381  1.0000
  Co  Co10      1.0  0.73650  0.03031  0.76682  1.0000
  F   F1        1.0  0.76748  0.26748  0.03497  1.0000
  F   F2        1.0  0.73252  0.76748  0.50000  1.0000
  F   F3        1.0  0.26748  0.23252  0.50000  1.0000
  F   F4        1.0  0.23252  0.73252  0.96503  1.0000
  F   F5        1.0  0.75000  0.75000  0.00000  1.0000
  F   F6        1.0  0.25000  0.25000  0.00000  1.0000
