data_image0
_chemical_formula_structural       CoF2
_chemical_formula_sum              "Co1 F2"
_cell_length_a       3.21153
_cell_length_b       3.21153
_cell_length_c       4.47959
_cell_angle_alpha    92.22
_cell_angle_beta     92.22
_cell_angle_gamma    55.1669

_space_group_name_H-M_alt    "P 1"
_space_group_IT_number       1

loop_
  _space_group_symop_operation_xyz
  'x, y, z'

loop_
  _atom_site_type_symbol
  _atom_site_label
  _atom_site_symmetry_multiplicity
  _atom_site_fract_x
  _atom_site_fract_y
  _atom_site_fract_z
  _atom_site_occupancy
  Co  Co1       1.0  0.66632  0.33368  0.50000  1.0000
  F   F1        1.0  0.32693  0.99325  0.71295  1.0000
  F   F2        1.0  0.00675  0.67307  0.28705  1.0000
