data_image0
_chemical_formula_structural       Co4F4
_chemical_formula_sum              "Co4 F4"
_cell_length_a       4.42977
_cell_length_b       4.42977
_cell_length_c       4.42977
_cell_angle_alpha    90
_cell_angle_beta     90
_cell_angle_gamma    90

_space_group_name_H-M_alt    "P 1"
_space_group_IT_number       1

loop_
  _space_group_symop_operation_xyz
  'x, y, z'

loop_
  _atom_site_type_symbol
  _atom_site_label
  _atom_site_symmetry_multiplicity
  _atom_site_fract_x
  _atom_site_fract_y
  _atom_site_fract_z
  _atom_site_occupancy
  Co  Co1       1.0  0.88204  0.61796  0.38204  1.0000
  Co  Co2       1.0  0.61796  0.38204  0.88204  1.0000
  Co  Co3       1.0  0.38204  0.88204  0.61796  1.0000
  Co  Co4       1.0  0.11796  0.11796  0.11796  1.0000
  F   F1        1.0  0.14515  0.35485  0.64515  1.0000
  F   F2        1.0  0.35485  0.64515  0.14515  1.0000
  F   F3        1.0  0.64515  0.14515  0.35485  1.0000
  F   F4        1.0  0.85485  0.85485  0.85485  1.0000
