data_image0
_chemical_formula_structural       Co4F8
_chemical_formula_sum              "Co4 F8"
_cell_length_a       7.3842
_cell_length_b       7.3842
_cell_length_c       10.3474
_cell_angle_alpha    40.5559
_cell_angle_beta     40.5559
_cell_angle_gamma    24.7691

_space_group_name_H-M_alt    "P 1"
_space_group_IT_number       1

loop_
  _space_group_symop_operation_xyz
  'x, y, z'

loop_
  _atom_site_type_symbol
  _atom_site_label
  _atom_site_symmetry_multiplicity
  _atom_site_fract_x
  _atom_site_fract_y
  _atom_site_fract_z
  _atom_site_occupancy
  Co  Co1       1.0  0.75526  0.75526  0.85859  1.0000
  Co  Co2       1.0  0.24474  0.24474  0.14141  1.0000
  Co  Co3       1.0  0.37994  0.37994  0.42986  1.0000
  Co  Co4       1.0  0.62006  0.62006  0.57014  1.0000
  F   F1        1.0  0.14207  0.14207  0.93775  1.0000
  F   F2        1.0  0.85793  0.85793  0.06225  1.0000
  F   F3        1.0  0.87628  0.87628  0.56305  1.0000
  F   F4        1.0  0.12372  0.12372  0.43695  1.0000
  F   F5        1.0  0.61560  0.61560  0.18970  1.0000
  F   F6        1.0  0.38440  0.38440  0.81030  1.0000
  F   F7        1.0  0.14858  0.14858  0.65935  1.0000
  F   F8        1.0  0.85142  0.85142  0.34065  1.0000
