data_image0
_chemical_formula_structural       Co8F8
_chemical_formula_sum              "Co8 F8"
_cell_length_a       5.35266
_cell_length_b       5.35266
_cell_length_c       6.66265
_cell_angle_alpha    90
_cell_angle_beta     90
_cell_angle_gamma    90

_space_group_name_H-M_alt    "P 1"
_space_group_IT_number       1

loop_
  _space_group_symop_operation_xyz
  'x, y, z'

loop_
  _atom_site_type_symbol
  _atom_site_label
  _atom_site_symmetry_multiplicity
  _atom_site_fract_x
  _atom_site_fract_y
  _atom_site_fract_z
  _atom_site_occupancy
  Co  Co1       1.0  0.53244  0.72538  0.00000  1.0000
  Co  Co2       1.0  0.27462  0.53244  0.50000  1.0000
  Co  Co3       1.0  0.72538  0.46756  0.50000  1.0000
  Co  Co4       1.0  0.46756  0.27462  0.00000  1.0000
  Co  Co5       1.0  0.50000  0.00000  0.50000  1.0000
  Co  Co6       1.0  0.00000  0.50000  0.00000  1.0000
  Co  Co7       1.0  0.00000  0.00000  0.75000  1.0000
  Co  Co8       1.0  0.00000  0.00000  0.25000  1.0000
  F   F1        1.0  0.19473  0.33336  0.76145  1.0000
  F   F2        1.0  0.66664  0.19473  0.26145  1.0000
  F   F3        1.0  0.33336  0.80527  0.26145  1.0000
  F   F4        1.0  0.80527  0.66664  0.76145  1.0000
  F   F5        1.0  0.80527  0.66664  0.23855  1.0000
  F   F6        1.0  0.33336  0.80527  0.73855  1.0000
  F   F7        1.0  0.66664  0.19473  0.73855  1.0000
  F   F8        1.0  0.19473  0.33336  0.23855  1.0000
