data_image0
_chemical_formula_structural       Co4F8
_chemical_formula_sum              "Co4 F8"
_cell_length_a       3.24365
_cell_length_b       5.49704
_cell_length_c       8.43205
_cell_angle_alpha    90
_cell_angle_beta     90
_cell_angle_gamma    90

_space_group_name_H-M_alt    "P 1"
_space_group_IT_number       1

loop_
  _space_group_symop_operation_xyz
  'x, y, z'

loop_
  _atom_site_type_symbol
  _atom_site_label
  _atom_site_symmetry_multiplicity
  _atom_site_fract_x
  _atom_site_fract_y
  _atom_site_fract_z
  _atom_site_occupancy
  Co  Co1       1.0  0.75000  0.75005  0.00145  1.0000
  Co  Co2       1.0  0.25000  0.24995  0.99855  1.0000
  Co  Co3       1.0  0.75000  0.25005  0.49855  1.0000
  Co  Co4       1.0  0.25000  0.74995  0.50145  1.0000
  F   F1        1.0  0.75000  0.58367  0.61149  1.0000
  F   F2        1.0  0.25000  0.41633  0.38851  1.0000
  F   F3        1.0  0.75000  0.08367  0.88851  1.0000
  F   F4        1.0  0.25000  0.91633  0.11149  1.0000
  F   F5        1.0  0.75000  0.41382  0.10995  1.0000
  F   F6        1.0  0.25000  0.58618  0.89005  1.0000
  F   F7        1.0  0.75000  0.91382  0.39005  1.0000
  F   F8        1.0  0.25000  0.08618  0.60995  1.0000
