data_image0
_chemical_formula_structural       Co2Hg2
_chemical_formula_sum              "Co2 Hg2"
_cell_length_a       5.29703
_cell_length_b       5.29703
_cell_length_c       4.62862
_cell_angle_alpha    90
_cell_angle_beta     90
_cell_angle_gamma    148.506

_space_group_name_H-M_alt    "P 1"
_space_group_IT_number       1

loop_
  _space_group_symop_operation_xyz
  'x, y, z'

loop_
  _atom_site_type_symbol
  _atom_site_label
  _atom_site_symmetry_multiplicity
  _atom_site_fract_x
  _atom_site_fract_y
  _atom_site_fract_z
  _atom_site_occupancy
  Co  Co1       1.0  0.13776  0.86224  0.75000  1.0000
  Co  Co2       1.0  0.86224  0.13776  0.25000  1.0000
  Hg  Hg1       1.0  0.39530  0.60470  0.75000  1.0000
  Hg  Hg2       1.0  0.60470  0.39530  0.25000  1.0000
