data_image0
_chemical_formula_structural       Co3F6
_chemical_formula_sum              "Co3 F6"
_cell_length_a       3.84009
_cell_length_b       3.84009
_cell_length_c       7.20685
_cell_angle_alpha    90
_cell_angle_beta     90
_cell_angle_gamma    120

_space_group_name_H-M_alt    "P 1"
_space_group_IT_number       1

loop_
  _space_group_symop_operation_xyz
  'x, y, z'

loop_
  _atom_site_type_symbol
  _atom_site_label
  _atom_site_symmetry_multiplicity
  _atom_site_fract_x
  _atom_site_fract_y
  _atom_site_fract_z
  _atom_site_occupancy
  Co  Co1       1.0  0.00000  0.50000  0.16667  1.0000
  Co  Co2       1.0  0.50000  0.50000  0.83333  1.0000
  Co  Co3       1.0  0.50000  0.00000  0.50000  1.0000
  F   F1        1.0  0.83138  0.66277  0.50000  1.0000
  F   F2        1.0  0.16862  0.83138  0.83333  1.0000
  F   F3        1.0  0.66277  0.83138  0.16667  1.0000
  F   F4        1.0  0.16862  0.33723  0.50000  1.0000
  F   F5        1.0  0.83138  0.16862  0.83333  1.0000
  F   F6        1.0  0.33723  0.16862  0.16667  1.0000
