data_image0
_chemical_formula_structural       Hg6Co2
_chemical_formula_sum              "Hg6 Co2"
_cell_length_a       4.27053
_cell_length_b       6.26011
_cell_length_c       6.26102
_cell_angle_alpha    90
_cell_angle_beta     90
_cell_angle_gamma    90

_space_group_name_H-M_alt    "P 1"
_space_group_IT_number       1

loop_
  _space_group_symop_operation_xyz
  'x, y, z'

loop_
  _atom_site_type_symbol
  _atom_site_label
  _atom_site_symmetry_multiplicity
  _atom_site_fract_x
  _atom_site_fract_y
  _atom_site_fract_z
  _atom_site_occupancy
  Hg  Hg1       1.0  0.00000  0.33848  0.24082  1.0000
  Hg  Hg2       1.0  0.00000  0.33848  0.75918  1.0000
  Hg  Hg3       1.0  0.50000  0.66152  0.25918  1.0000
  Hg  Hg4       1.0  0.50000  0.66152  0.74082  1.0000
  Hg  Hg5       1.0  0.00000  0.92434  0.50000  1.0000
  Hg  Hg6       1.0  0.50000  0.07566  0.00000  1.0000
  Co  Co1       1.0  0.00000  0.77011  0.00000  1.0000
  Co  Co2       1.0  0.50000  0.22989  0.50000  1.0000
