data_image0
_chemical_formula_structural       Co2F2
_chemical_formula_sum              "Co2 F2"
_cell_length_a       6.63347
_cell_length_b       6.63347
_cell_length_c       2.5995
_cell_angle_alpha    90
_cell_angle_beta     90
_cell_angle_gamma    157.518

_space_group_name_H-M_alt    "P 1"
_space_group_IT_number       1

loop_
  _space_group_symop_operation_xyz
  'x, y, z'

loop_
  _atom_site_type_symbol
  _atom_site_label
  _atom_site_symmetry_multiplicity
  _atom_site_fract_x
  _atom_site_fract_y
  _atom_site_fract_z
  _atom_site_occupancy
  Co  Co1       1.0  0.18348  0.81652  0.75000  1.0000
  Co  Co2       1.0  0.81652  0.18348  0.25000  1.0000
  F   F1        1.0  0.40538  0.59462  0.75000  1.0000
  F   F2        1.0  0.59462  0.40538  0.25000  1.0000
