data_image0
_chemical_formula_structural       Co6Hg16
_chemical_formula_sum              "Co6 Hg16"
_cell_length_a       6.2382
_cell_length_b       6.2336
_cell_length_c       14.0097
_cell_angle_alpha    64.0081
_cell_angle_beta     90
_cell_angle_gamma    90

_space_group_name_H-M_alt    "P 1"
_space_group_IT_number       1

loop_
  _space_group_symop_operation_xyz
  'x, y, z'

loop_
  _atom_site_type_symbol
  _atom_site_label
  _atom_site_symmetry_multiplicity
  _atom_site_fract_x
  _atom_site_fract_y
  _atom_site_fract_z
  _atom_site_occupancy
  Co  Co1       1.0  0.50948  0.74955  0.74975  1.0000
  Co  Co2       1.0  0.49052  0.25045  0.25025  1.0000
  Co  Co3       1.0  0.50000  0.00000  0.00000  1.0000
  Co  Co4       1.0  0.00948  0.25045  0.75025  1.0000
  Co  Co5       1.0  0.99052  0.74955  0.24975  1.0000
  Co  Co6       1.0  0.00000  0.00000  0.50000  1.0000
  Hg  Hg1       1.0  0.74076  0.62331  0.12499  1.0000
  Hg  Hg2       1.0  0.75774  0.12525  0.62570  1.0000
  Hg  Hg3       1.0  0.75844  0.87493  0.87718  1.0000
  Hg  Hg4       1.0  0.74270  0.37096  0.37781  1.0000
  Hg  Hg5       1.0  0.75730  0.37096  0.87781  1.0000
  Hg  Hg6       1.0  0.74226  0.12525  0.12570  1.0000
  Hg  Hg7       1.0  0.74156  0.87493  0.37718  1.0000
  Hg  Hg8       1.0  0.75924  0.62331  0.62499  1.0000
  Hg  Hg9       1.0  0.25774  0.87475  0.87430  1.0000
  Hg  Hg10      1.0  0.24270  0.62904  0.12219  1.0000
  Hg  Hg11      1.0  0.25844  0.12507  0.62282  1.0000
  Hg  Hg12      1.0  0.24076  0.37669  0.37501  1.0000
  Hg  Hg13      1.0  0.24156  0.12507  0.12282  1.0000
  Hg  Hg14      1.0  0.25924  0.37669  0.87501  1.0000
  Hg  Hg15      1.0  0.24226  0.87475  0.37430  1.0000
  Hg  Hg16      1.0  0.25730  0.62904  0.62219  1.0000
