data_image0
_chemical_formula_structural       CoF4
_chemical_formula_sum              "Co1 F4"
_cell_length_a       5.00904
_cell_length_b       5.00904
_cell_length_c       5.00904
_cell_angle_alpha    93.5159
_cell_angle_beta     93.5159
_cell_angle_gamma    151.324

_space_group_name_H-M_alt    "P 1"
_space_group_IT_number       1

loop_
  _space_group_symop_operation_xyz
  'x, y, z'

loop_
  _atom_site_type_symbol
  _atom_site_label
  _atom_site_symmetry_multiplicity
  _atom_site_fract_x
  _atom_site_fract_y
  _atom_site_fract_z
  _atom_site_occupancy
  Co  Co1       1.0  0.00000  0.00000  0.00000  1.0000
  F   F1        1.0  0.52864  0.27491  0.80355  1.0000
  F   F2        1.0  0.47136  0.72509  0.19645  1.0000
  F   F3        1.0  0.72509  0.52864  0.25372  1.0000
  F   F4        1.0  0.27491  0.47136  0.74628  1.0000
