data_image0
_chemical_formula_structural       Co4Hg8
_chemical_formula_sum              "Co4 Hg8"
_cell_length_a       9.33609
_cell_length_b       9.33609
_cell_length_c       7.58923
_cell_angle_alpha    90
_cell_angle_beta     90
_cell_angle_gamma    159.768

_space_group_name_H-M_alt    "P 1"
_space_group_IT_number       1

loop_
  _space_group_symop_operation_xyz
  'x, y, z'

loop_
  _atom_site_type_symbol
  _atom_site_label
  _atom_site_symmetry_multiplicity
  _atom_site_fract_x
  _atom_site_fract_y
  _atom_site_fract_z
  _atom_site_occupancy
  Co  Co1       1.0  0.21195  0.78805  0.23575  1.0000
  Co  Co2       1.0  0.78805  0.21195  0.73575  1.0000
  Co  Co3       1.0  0.55901  0.44099  0.70719  1.0000
  Co  Co4       1.0  0.44099  0.55901  0.20719  1.0000
  Hg  Hg1       1.0  0.67052  0.32948  0.95688  1.0000
  Hg  Hg2       1.0  0.32948  0.67052  0.45688  1.0000
  Hg  Hg3       1.0  0.40384  0.59616  0.81389  1.0000
  Hg  Hg4       1.0  0.59616  0.40384  0.31389  1.0000
  Hg  Hg5       1.0  0.17619  0.82381  0.61132  1.0000
  Hg  Hg6       1.0  0.82381  0.17619  0.11132  1.0000
  Hg  Hg7       1.0  0.97860  0.02140  0.48927  1.0000
  Hg  Hg8       1.0  0.02140  0.97860  0.98927  1.0000
