data_image0
_chemical_formula_structural       CoHg4
_chemical_formula_sum              "Co1 Hg4"
_cell_length_a       6.20223
_cell_length_b       6.20223
_cell_length_c       6.20223
_cell_angle_alpha    93.3796
_cell_angle_beta     93.3796
_cell_angle_gamma    151.896

_space_group_name_H-M_alt    "P 1"
_space_group_IT_number       1

loop_
  _space_group_symop_operation_xyz
  'x, y, z'

loop_
  _atom_site_type_symbol
  _atom_site_label
  _atom_site_symmetry_multiplicity
  _atom_site_fract_x
  _atom_site_fract_y
  _atom_site_fract_z
  _atom_site_occupancy
  Co  Co1       1.0  0.00000  0.00000  0.00000  1.0000
  Hg  Hg1       1.0  0.49798  0.23412  0.73209  1.0000
  Hg  Hg2       1.0  0.50202  0.76588  0.26791  1.0000
  Hg  Hg3       1.0  0.76588  0.49798  0.26386  1.0000
  Hg  Hg4       1.0  0.23412  0.50202  0.73614  1.0000
