data_image0
_chemical_formula_structural       Co4Hg4
_chemical_formula_sum              "Co4 Hg4"
_cell_length_a       5.10022
_cell_length_b       5.10022
_cell_length_c       5.10022
_cell_angle_alpha    90
_cell_angle_beta     90
_cell_angle_gamma    90

_space_group_name_H-M_alt    "P 1"
_space_group_IT_number       1

loop_
  _space_group_symop_operation_xyz
  'x, y, z'

loop_
  _atom_site_type_symbol
  _atom_site_label
  _atom_site_symmetry_multiplicity
  _atom_site_fract_x
  _atom_site_fract_y
  _atom_site_fract_z
  _atom_site_occupancy
  Co  Co1       1.0  0.85045  0.64955  0.35045  1.0000
  Co  Co2       1.0  0.64955  0.35045  0.85045  1.0000
  Co  Co3       1.0  0.35045  0.85045  0.64955  1.0000
  Co  Co4       1.0  0.14955  0.14955  0.14955  1.0000
  Hg  Hg1       1.0  0.15687  0.34313  0.65687  1.0000
  Hg  Hg2       1.0  0.34313  0.65687  0.15687  1.0000
  Hg  Hg3       1.0  0.65687  0.15687  0.34313  1.0000
  Hg  Hg4       1.0  0.84313  0.84313  0.84313  1.0000
