data_image0
_chemical_formula_structural       Co2Hg4
_chemical_formula_sum              "Co2 Hg4"
_cell_length_a       6.5319
_cell_length_b       6.5319
_cell_length_c       3.86656
_cell_angle_alpha    90
_cell_angle_beta     90
_cell_angle_gamma    130.668

_space_group_name_H-M_alt    "P 1"
_space_group_IT_number       1

loop_
  _space_group_symop_operation_xyz
  'x, y, z'

loop_
  _atom_site_type_symbol
  _atom_site_label
  _atom_site_symmetry_multiplicity
  _atom_site_fract_x
  _atom_site_fract_y
  _atom_site_fract_z
  _atom_site_occupancy
  Co  Co1       1.0  0.11054  0.11054  0.75000  1.0000
  Co  Co2       1.0  0.88946  0.88946  0.25000  1.0000
  Hg  Hg1       1.0  0.56923  0.86193  0.75000  1.0000
  Hg  Hg2       1.0  0.86193  0.56923  0.75000  1.0000
  Hg  Hg3       1.0  0.13807  0.43077  0.25000  1.0000
  Hg  Hg4       1.0  0.43077  0.13807  0.25000  1.0000
