data_image0
_chemical_formula_structural       Co10Hg6
_chemical_formula_sum              "Co10 Hg6"
_cell_length_a       7.62436
_cell_length_b       7.62436
_cell_length_c       7.62436
_cell_angle_alpha    96.1619
_cell_angle_beta     96.1619
_cell_angle_gamma    141.751

_space_group_name_H-M_alt    "P 1"
_space_group_IT_number       1

loop_
  _space_group_symop_operation_xyz
  'x, y, z'

loop_
  _atom_site_type_symbol
  _atom_site_label
  _atom_site_symmetry_multiplicity
  _atom_site_fract_x
  _atom_site_fract_y
  _atom_site_fract_z
  _atom_site_occupancy
  Co  Co1       1.0  0.55466  0.21421  0.76887  1.0000
  Co  Co2       1.0  0.44534  0.78579  0.23113  1.0000
  Co  Co3       1.0  0.78579  0.55466  0.34045  1.0000
  Co  Co4       1.0  0.21421  0.44534  0.65955  1.0000
  Co  Co5       1.0  0.94534  0.71421  0.65955  1.0000
  Co  Co6       1.0  0.28579  0.94534  0.23113  1.0000
  Co  Co7       1.0  0.25000  0.75000  0.50000  1.0000
  Co  Co8       1.0  0.75000  0.25000  0.50000  1.0000
  Co  Co9       1.0  0.05466  0.28579  0.34045  1.0000
  Co  Co10      1.0  0.71421  0.05466  0.76887  1.0000
  Hg  Hg1       1.0  0.80396  0.30396  0.10792  1.0000
  Hg  Hg2       1.0  0.69604  0.80396  0.50000  1.0000
  Hg  Hg3       1.0  0.30396  0.19604  0.50000  1.0000
  Hg  Hg4       1.0  0.19604  0.69604  0.89208  1.0000
  Hg  Hg5       1.0  0.75000  0.75000  0.00000  1.0000
  Hg  Hg6       1.0  0.25000  0.25000  0.00000  1.0000
