data_image0
_chemical_formula_structural       Co6Hg4
_chemical_formula_sum              "Co6 Hg4"
_cell_length_a       5.47285
_cell_length_b       5.47285
_cell_length_c       5.49663
_cell_angle_alpha    90
_cell_angle_beta     90
_cell_angle_gamma    90

_space_group_name_H-M_alt    "P 1"
_space_group_IT_number       1

loop_
  _space_group_symop_operation_xyz
  'x, y, z'

loop_
  _atom_site_type_symbol
  _atom_site_label
  _atom_site_symmetry_multiplicity
  _atom_site_fract_x
  _atom_site_fract_y
  _atom_site_fract_z
  _atom_site_occupancy
  Co  Co1       1.0  0.00000  0.00000  0.00000  1.0000
  Co  Co2       1.0  0.50000  0.50000  0.00000  1.0000
  Co  Co3       1.0  0.14735  0.64735  0.83002  1.0000
  Co  Co4       1.0  0.35265  0.14735  0.16998  1.0000
  Co  Co5       1.0  0.64735  0.85265  0.16998  1.0000
  Co  Co6       1.0  0.85265  0.35265  0.83002  1.0000
  Hg  Hg1       1.0  0.19111  0.69111  0.34127  1.0000
  Hg  Hg2       1.0  0.30889  0.19111  0.65873  1.0000
  Hg  Hg3       1.0  0.69111  0.80889  0.65873  1.0000
  Hg  Hg4       1.0  0.80889  0.30889  0.34127  1.0000
