data_image0
_chemical_formula_structural       Co4Hg12
_chemical_formula_sum              "Co4 Hg12"
_cell_length_a       9.40852
_cell_length_b       9.40852
_cell_length_c       6.06014
_cell_angle_alpha    90
_cell_angle_beta     90
_cell_angle_gamma    143.074

_space_group_name_H-M_alt    "P 1"
_space_group_IT_number       1

loop_
  _space_group_symop_operation_xyz
  'x, y, z'

loop_
  _atom_site_type_symbol
  _atom_site_label
  _atom_site_symmetry_multiplicity
  _atom_site_fract_x
  _atom_site_fract_y
  _atom_site_fract_z
  _atom_site_occupancy
  Co  Co1       1.0  0.63388  0.36612  0.00000  1.0000
  Co  Co2       1.0  0.36612  0.63388  0.00000  1.0000
  Co  Co3       1.0  0.13388  0.86612  0.50000  1.0000
  Co  Co4       1.0  0.86612  0.13388  0.50000  1.0000
  Hg  Hg1       1.0  0.67599  0.67599  0.17465  1.0000
  Hg  Hg2       1.0  0.17599  0.17599  0.32535  1.0000
  Hg  Hg3       1.0  0.82401  0.82401  0.67465  1.0000
  Hg  Hg4       1.0  0.37835  0.62165  0.50000  1.0000
  Hg  Hg5       1.0  0.99748  0.49748  0.75000  1.0000
  Hg  Hg6       1.0  0.87835  0.12165  0.00000  1.0000
  Hg  Hg7       1.0  0.00252  0.50252  0.25000  1.0000
  Hg  Hg8       1.0  0.32401  0.32401  0.82535  1.0000
  Hg  Hg9       1.0  0.62165  0.37835  0.50000  1.0000
  Hg  Hg10      1.0  0.12165  0.87835  0.00000  1.0000
  Hg  Hg11      1.0  0.50252  0.00252  0.25000  1.0000
  Hg  Hg12      1.0  0.49748  0.99748  0.75000  1.0000
