data_image0
_chemical_formula_structural       Hg9Co13
_chemical_formula_sum              "Hg9 Co13"
_cell_length_a       8.64129
_cell_length_b       8.64129
_cell_length_c       5.31063
_cell_angle_alpha    90
_cell_angle_beta     90
_cell_angle_gamma    120

_space_group_name_H-M_alt    "P 1"
_space_group_IT_number       1

loop_
  _space_group_symop_operation_xyz
  'x, y, z'

loop_
  _atom_site_type_symbol
  _atom_site_label
  _atom_site_symmetry_multiplicity
  _atom_site_fract_x
  _atom_site_fract_y
  _atom_site_fract_z
  _atom_site_occupancy
  Hg  Hg1       1.0  0.00000  0.00000  0.50000  1.0000
  Hg  Hg2       1.0  0.33333  0.66667  0.74812  1.0000
  Hg  Hg3       1.0  0.66667  0.33333  0.25188  1.0000
  Hg  Hg4       1.0  0.19272  0.80728  0.29114  1.0000
  Hg  Hg5       1.0  0.19272  0.38545  0.29114  1.0000
  Hg  Hg6       1.0  0.61455  0.80728  0.29114  1.0000
  Hg  Hg7       1.0  0.38545  0.19272  0.70886  1.0000
  Hg  Hg8       1.0  0.80728  0.61455  0.70886  1.0000
  Hg  Hg9       1.0  0.80728  0.19272  0.70886  1.0000
  Co  Co1       1.0  0.00000  0.00000  0.00000  1.0000
  Co  Co2       1.0  0.50000  0.00000  0.00000  1.0000
  Co  Co3       1.0  0.00000  0.50000  0.00000  1.0000
  Co  Co4       1.0  0.50000  0.50000  0.00000  1.0000
  Co  Co5       1.0  0.50000  0.00000  0.50000  1.0000
  Co  Co6       1.0  0.00000  0.50000  0.50000  1.0000
  Co  Co7       1.0  0.50000  0.50000  0.50000  1.0000
  Co  Co8       1.0  0.15742  0.84258  0.81426  1.0000
  Co  Co9       1.0  0.15742  0.31485  0.81426  1.0000
  Co  Co10      1.0  0.68515  0.84258  0.81426  1.0000
  Co  Co11      1.0  0.31485  0.15742  0.18574  1.0000
  Co  Co12      1.0  0.84258  0.68515  0.18574  1.0000
  Co  Co13      1.0  0.84258  0.15742  0.18574  1.0000
