data_image0
_chemical_formula_structural       F8Co4
_chemical_formula_sum              "F8 Co4"
_cell_length_a       4.43408
_cell_length_b       6.44757
_cell_length_c       5.89014
_cell_angle_alpha    52.6243
_cell_angle_beta     90
_cell_angle_gamma    90

_space_group_name_H-M_alt    "P 1"
_space_group_IT_number       1

loop_
  _space_group_symop_operation_xyz
  'x, y, z'

loop_
  _atom_site_type_symbol
  _atom_site_label
  _atom_site_symmetry_multiplicity
  _atom_site_fract_x
  _atom_site_fract_y
  _atom_site_fract_z
  _atom_site_occupancy
  F   F1        1.0  0.28112  0.08249  0.31556  1.0000
  F   F2        1.0  0.78112  0.91751  0.18444  1.0000
  F   F3        1.0  0.71888  0.91751  0.68444  1.0000
  F   F4        1.0  0.21888  0.08249  0.81556  1.0000
  F   F5        1.0  0.71878  0.41752  0.68451  1.0000
  F   F6        1.0  0.21878  0.58248  0.81549  1.0000
  F   F7        1.0  0.28122  0.58248  0.31549  1.0000
  F   F8        1.0  0.78122  0.41752  0.18451  1.0000
  Co  Co1       1.0  0.00001  0.25001  0.99991  1.0000
  Co  Co2       1.0  0.50001  0.74999  0.50009  1.0000
  Co  Co3       1.0  0.99999  0.74999  0.00009  1.0000
  Co  Co4       1.0  0.49999  0.25001  0.49991  1.0000
