data_image0
_chemical_formula_structural       Hg2Co6
_chemical_formula_sum              "Hg2 Co6"
_cell_length_a       8.01641
_cell_length_b       8.01641
_cell_length_c       8.01641
_cell_angle_alpha    152.821
_cell_angle_beta     152.821
_cell_angle_gamma    38.8159

_space_group_name_H-M_alt    "P 1"
_space_group_IT_number       1

loop_
  _space_group_symop_operation_xyz
  'x, y, z'

loop_
  _atom_site_type_symbol
  _atom_site_label
  _atom_site_symmetry_multiplicity
  _atom_site_fract_x
  _atom_site_fract_y
  _atom_site_fract_z
  _atom_site_occupancy
  Hg  Hg1       1.0  0.87503  0.87503  0.00000  1.0000
  Hg  Hg2       1.0  0.12497  0.12497  0.00000  1.0000
  Co  Co1       1.0  0.00000  0.50000  0.50000  1.0000
  Co  Co2       1.0  0.50000  0.00000  0.50000  1.0000
  Co  Co3       1.0  0.75000  0.25000  0.50000  1.0000
  Co  Co4       1.0  0.25000  0.75000  0.50000  1.0000
  Co  Co5       1.0  0.62740  0.62740  0.00000  1.0000
  Co  Co6       1.0  0.37260  0.37260  0.00000  1.0000
