data_image0
_chemical_formula_structural       Co8F16
_chemical_formula_sum              "Co8 F16"
_cell_length_a       6.17175
_cell_length_b       6.17175
_cell_length_c       7.10691
_cell_angle_alpha    90
_cell_angle_beta     90
_cell_angle_gamma    109.469

_space_group_name_H-M_alt    "P 1"
_space_group_IT_number       1

loop_
  _space_group_symop_operation_xyz
  'x, y, z'

loop_
  _atom_site_type_symbol
  _atom_site_label
  _atom_site_symmetry_multiplicity
  _atom_site_fract_x
  _atom_site_fract_y
  _atom_site_fract_z
  _atom_site_occupancy
  Co  Co1       1.0  0.24931  0.24931  0.75090  1.0000
  Co  Co2       1.0  0.25069  0.25069  0.25090  1.0000
  Co  Co3       1.0  0.74931  0.74931  0.74910  1.0000
  Co  Co4       1.0  0.75069  0.75069  0.24910  1.0000
  Co  Co5       1.0  0.24990  0.75010  0.50000  1.0000
  Co  Co6       1.0  0.25010  0.74990  0.00000  1.0000
  Co  Co7       1.0  0.75010  0.24990  0.50000  1.0000
  Co  Co8       1.0  0.74990  0.25010  0.00000  1.0000
  F   F1        1.0  0.37525  0.62521  0.25023  1.0000
  F   F2        1.0  0.12475  0.87479  0.75023  1.0000
  F   F3        1.0  0.12521  0.87525  0.24977  1.0000
  F   F4        1.0  0.37479  0.62475  0.74977  1.0000
  F   F5        1.0  0.62475  0.37479  0.74977  1.0000
  F   F6        1.0  0.87525  0.12521  0.24977  1.0000
  F   F7        1.0  0.87479  0.12475  0.75023  1.0000
  F   F8        1.0  0.62521  0.37525  0.25023  1.0000
  F   F9        1.0  0.12522  0.37524  0.00047  1.0000
  F   F10       1.0  0.37478  0.12476  0.50047  1.0000
  F   F11       1.0  0.87524  0.62522  0.49953  1.0000
  F   F12       1.0  0.62476  0.87478  0.99953  1.0000
  F   F13       1.0  0.87478  0.62476  0.99953  1.0000
  F   F14       1.0  0.62522  0.87524  0.49953  1.0000
  F   F15       1.0  0.12476  0.37478  0.50047  1.0000
  F   F16       1.0  0.37524  0.12522  0.00047  1.0000
