data_image0
_chemical_formula_structural       Co3Hg4
_chemical_formula_sum              "Co3 Hg4"
_cell_length_a       5.4515
_cell_length_b       5.4515
_cell_length_c       7.98101
_cell_angle_alpha    50.5303
_cell_angle_beta     50.5303
_cell_angle_gamma    48.4064

_space_group_name_H-M_alt    "P 1"
_space_group_IT_number       1

loop_
  _space_group_symop_operation_xyz
  'x, y, z'

loop_
  _atom_site_type_symbol
  _atom_site_label
  _atom_site_symmetry_multiplicity
  _atom_site_fract_x
  _atom_site_fract_y
  _atom_site_fract_z
  _atom_site_occupancy
  Co  Co1       1.0  0.15931  0.15931  0.82498  1.0000
  Co  Co2       1.0  0.84069  0.84069  0.17502  1.0000
  Co  Co3       1.0  0.50000  0.50000  0.50000  1.0000
  Hg  Hg1       1.0  0.83603  0.83603  0.52487  1.0000
  Hg  Hg2       1.0  0.16397  0.16397  0.47513  1.0000
  Hg  Hg3       1.0  0.38887  0.38887  0.92304  1.0000
  Hg  Hg4       1.0  0.61113  0.61113  0.07696  1.0000
