data_image0
_chemical_formula_structural       Co4S18
_chemical_formula_sum              "Co4 S18"
_cell_length_a       8.53148
_cell_length_b       7.8735
_cell_length_c       8.04594
_cell_angle_alpha    100.329
_cell_angle_beta     92.2297
_cell_angle_gamma    88.1564

_space_group_name_H-M_alt    "P 1"
_space_group_IT_number       1

loop_
  _space_group_symop_operation_xyz
  'x, y, z'

loop_
  _atom_site_type_symbol
  _atom_site_label
  _atom_site_symmetry_multiplicity
  _atom_site_fract_x
  _atom_site_fract_y
  _atom_site_fract_z
  _atom_site_occupancy
  Co  Co1       1.0  0.11815  0.11411  0.14926  1.0000
  Co  Co2       1.0  0.88185  0.88589  0.85074  1.0000
  Co  Co3       1.0  0.40413  0.33074  0.37233  1.0000
  Co  Co4       1.0  0.59587  0.66926  0.62767  1.0000
  S   S1        1.0  0.03515  0.22867  0.42468  1.0000
  S   S2        1.0  0.96485  0.77133  0.57532  1.0000
  S   S3        1.0  0.36366  0.49830  0.65861  1.0000
  S   S4        1.0  0.63634  0.50170  0.34139  1.0000
  S   S5        1.0  0.61163  0.80989  0.91730  1.0000
  S   S6        1.0  0.38837  0.19011  0.08270  1.0000
  S   S7        1.0  0.96291  0.84681  0.12800  1.0000
  S   S8        1.0  0.03709  0.15319  0.87200  1.0000
  S   S9        1.0  0.24135  0.08316  0.42760  1.0000
  S   S10       1.0  0.75865  0.91684  0.57240  1.0000
  S   S11       1.0  0.55655  0.34968  0.63143  1.0000
  S   S12       1.0  0.44345  0.65032  0.36857  1.0000
  S   S13       1.0  0.15693  0.84216  0.99608  1.0000
  S   S14       1.0  0.84307  0.15784  0.00392  1.0000
  S   S15       1.0  0.87947  0.59199  0.70598  1.0000
  S   S16       1.0  0.12053  0.40801  0.29402  1.0000
  S   S17       1.0  0.54327  0.07917  0.22340  1.0000
  S   S18       1.0  0.45673  0.92083  0.77660  1.0000
