data_image0
_chemical_formula_structural       Co10I6
_chemical_formula_sum              "Co10 I6"
_cell_length_a       7.39556
_cell_length_b       7.39556
_cell_length_c       7.39556
_cell_angle_alpha    106.101
_cell_angle_beta     106.101
_cell_angle_gamma    116.445

_space_group_name_H-M_alt    "P 1"
_space_group_IT_number       1

loop_
  _space_group_symop_operation_xyz
  'x, y, z'

loop_
  _atom_site_type_symbol
  _atom_site_label
  _atom_site_symmetry_multiplicity
  _atom_site_fract_x
  _atom_site_fract_y
  _atom_site_fract_z
  _atom_site_occupancy
  Co  Co1       1.0  0.59112  0.30189  0.89301  1.0000
  Co  Co2       1.0  0.40888  0.69811  0.10699  1.0000
  Co  Co3       1.0  0.69811  0.59112  0.28923  1.0000
  Co  Co4       1.0  0.30189  0.40888  0.71077  1.0000
  Co  Co5       1.0  0.90888  0.80189  0.71077  1.0000
  Co  Co6       1.0  0.19811  0.90888  0.10699  1.0000
  Co  Co7       1.0  0.25000  0.75000  0.50000  1.0000
  Co  Co8       1.0  0.75000  0.25000  0.50000  1.0000
  Co  Co9       1.0  0.09112  0.19811  0.28923  1.0000
  Co  Co10      1.0  0.80189  0.09112  0.89301  1.0000
  I   I1        1.0  0.86392  0.36392  0.22784  1.0000
  I   I2        1.0  0.63608  0.86392  0.50000  1.0000
  I   I3        1.0  0.36392  0.13608  0.50000  1.0000
  I   I4        1.0  0.13608  0.63608  0.77216  1.0000
  I   I5        1.0  0.75000  0.75000  0.00000  1.0000
  I   I6        1.0  0.25000  0.25000  0.00000  1.0000
