data_image0
_chemical_formula_structural       Co2I4
_chemical_formula_sum              "Co2 I4"
_cell_length_a       5.98408
_cell_length_b       5.98408
_cell_length_c       5.98408
_cell_angle_alpha    108.628
_cell_angle_beta     108.628
_cell_angle_gamma    111.172

_space_group_name_H-M_alt    "P 1"
_space_group_IT_number       1

loop_
  _space_group_symop_operation_xyz
  'x, y, z'

loop_
  _atom_site_type_symbol
  _atom_site_label
  _atom_site_symmetry_multiplicity
  _atom_site_fract_x
  _atom_site_fract_y
  _atom_site_fract_z
  _atom_site_occupancy
  Co  Co1       1.0  0.25000  0.25000  0.00000  1.0000
  Co  Co2       1.0  0.75000  0.75000  0.00000  1.0000
  I   I1        1.0  0.68257  0.18257  0.86515  1.0000
  I   I2        1.0  0.31743  0.81743  0.13485  1.0000
  I   I3        1.0  0.81743  0.68257  0.50000  1.0000
  I   I4        1.0  0.18257  0.31743  0.50000  1.0000
