data_image0
_chemical_formula_structural       Co8N16
_chemical_formula_sum              "Co8 N16"
_cell_length_a       5.06713
_cell_length_b       9.05033
_cell_length_c       4.92541
_cell_angle_alpha    90
_cell_angle_beta     90
_cell_angle_gamma    90

_space_group_name_H-M_alt    "P 1"
_space_group_IT_number       1

loop_
  _space_group_symop_operation_xyz
  'x, y, z'

loop_
  _atom_site_type_symbol
  _atom_site_label
  _atom_site_symmetry_multiplicity
  _atom_site_fract_x
  _atom_site_fract_y
  _atom_site_fract_z
  _atom_site_occupancy
  Co  Co1       1.0  0.69278  0.83967  0.04953  1.0000
  Co  Co2       1.0  0.80722  0.66033  0.54953  1.0000
  Co  Co3       1.0  0.80722  0.33967  0.95047  1.0000
  Co  Co4       1.0  0.69278  0.16033  0.45047  1.0000
  Co  Co5       1.0  0.30722  0.16033  0.95047  1.0000
  Co  Co6       1.0  0.19278  0.33967  0.45047  1.0000
  Co  Co7       1.0  0.19278  0.66033  0.04953  1.0000
  Co  Co8       1.0  0.30722  0.83967  0.54953  1.0000
  N   N1        1.0  0.36525  0.50000  0.25000  1.0000
  N   N2        1.0  0.13475  0.00000  0.75000  1.0000
  N   N3        1.0  0.63475  0.50000  0.75000  1.0000
  N   N4        1.0  0.86525  0.00000  0.25000  1.0000
  N   N5        1.0  0.37761  0.80752  0.19938  1.0000
  N   N6        1.0  0.12239  0.69248  0.69938  1.0000
  N   N7        1.0  0.12239  0.30752  0.80062  1.0000
  N   N8        1.0  0.37761  0.19248  0.30062  1.0000
  N   N9        1.0  0.62239  0.19248  0.80062  1.0000
  N   N10       1.0  0.87761  0.30752  0.30062  1.0000
  N   N11       1.0  0.87761  0.69248  0.19938  1.0000
  N   N12       1.0  0.62239  0.80752  0.69938  1.0000
  N   N13       1.0  0.50000  0.50000  0.00000  1.0000
  N   N14       1.0  0.00000  0.00000  0.50000  1.0000
  N   N15       1.0  0.00000  0.00000  0.00000  1.0000
  N   N16       1.0  0.50000  0.50000  0.50000  1.0000
