data_image0
_chemical_formula_structural       N12Co8
_chemical_formula_sum              "N12 Co8"
_cell_length_a       6.07555
_cell_length_b       5.69061
_cell_length_c       5.716
_cell_angle_alpha    90
_cell_angle_beta     90
_cell_angle_gamma    90

_space_group_name_H-M_alt    "P 1"
_space_group_IT_number       1

loop_
  _space_group_symop_operation_xyz
  'x, y, z'

loop_
  _atom_site_type_symbol
  _atom_site_label
  _atom_site_symmetry_multiplicity
  _atom_site_fract_x
  _atom_site_fract_y
  _atom_site_fract_z
  _atom_site_occupancy
  N   N1        1.0  0.25000  0.82187  0.37506  1.0000
  N   N2        1.0  0.75000  0.17813  0.62494  1.0000
  N   N3        1.0  0.56833  0.47932  0.31619  1.0000
  N   N4        1.0  0.06833  0.52068  0.68381  1.0000
  N   N5        1.0  0.43167  0.02068  0.81619  1.0000
  N   N6        1.0  0.06833  0.02068  0.81619  1.0000
  N   N7        1.0  0.43167  0.52068  0.68381  1.0000
  N   N8        1.0  0.93167  0.47932  0.31619  1.0000
  N   N9        1.0  0.56833  0.97932  0.18381  1.0000
  N   N10       1.0  0.25000  0.32187  0.12494  1.0000
  N   N11       1.0  0.93167  0.97932  0.18381  1.0000
  N   N12       1.0  0.75000  0.67813  0.87506  1.0000
  Co  Co1       1.0  0.25000  0.49654  0.38110  1.0000
  Co  Co2       1.0  0.25000  0.80101  0.67932  1.0000
  Co  Co3       1.0  0.75000  0.19899  0.32068  1.0000
  Co  Co4       1.0  0.75000  0.69899  0.17932  1.0000
  Co  Co5       1.0  0.25000  0.30101  0.82068  1.0000
  Co  Co6       1.0  0.25000  0.99654  0.11890  1.0000
  Co  Co7       1.0  0.75000  0.50346  0.61890  1.0000
  Co  Co8       1.0  0.75000  0.00346  0.88110  1.0000
