data_image0
_chemical_formula_structural       CoI4
_chemical_formula_sum              "Co1 I4"
_cell_length_a       8.02755
_cell_length_b       8.02755
_cell_length_c       8.02755
_cell_angle_alpha    92.3085
_cell_angle_beta     92.3085
_cell_angle_gamma    156.844

_space_group_name_H-M_alt    "P 1"
_space_group_IT_number       1

loop_
  _space_group_symop_operation_xyz
  'x, y, z'

loop_
  _atom_site_type_symbol
  _atom_site_label
  _atom_site_symmetry_multiplicity
  _atom_site_fract_x
  _atom_site_fract_y
  _atom_site_fract_z
  _atom_site_occupancy
  Co  Co1       1.0  0.00000  0.00000  0.00000  1.0000
  I   I1        1.0  0.54527  0.27685  0.82212  1.0000
  I   I2        1.0  0.45473  0.72315  0.17788  1.0000
  I   I3        1.0  0.72315  0.54527  0.26842  1.0000
  I   I4        1.0  0.27685  0.45473  0.73158  1.0000
