data_image0
_chemical_formula_structural       S6Co2
_chemical_formula_sum              "S6 Co2"
_cell_length_a       3.2975
_cell_length_b       6.29293
_cell_length_c       7.6153
_cell_angle_alpha    90
_cell_angle_beta     90
_cell_angle_gamma    90

_space_group_name_H-M_alt    "P 1"
_space_group_IT_number       1

loop_
  _space_group_symop_operation_xyz
  'x, y, z'

loop_
  _atom_site_type_symbol
  _atom_site_label
  _atom_site_symmetry_multiplicity
  _atom_site_fract_x
  _atom_site_fract_y
  _atom_site_fract_z
  _atom_site_occupancy
  S   S1        1.0  0.00000  0.27530  0.30104  1.0000
  S   S2        1.0  0.00000  0.27530  0.69896  1.0000
  S   S3        1.0  0.50000  0.72470  0.19896  1.0000
  S   S4        1.0  0.50000  0.72470  0.80104  1.0000
  S   S5        1.0  0.00000  0.00467  0.50000  1.0000
  S   S6        1.0  0.50000  0.99533  0.00000  1.0000
  Co  Co1       1.0  0.00000  0.76855  0.00000  1.0000
  Co  Co2       1.0  0.50000  0.23145  0.50000  1.0000
