data_image0
_chemical_formula_structural       Hg4Co4
_chemical_formula_sum              "Hg4 Co4"
_cell_length_a       5.09628
_cell_length_b       5.09628
_cell_length_c       5.09628
_cell_angle_alpha    90
_cell_angle_beta     90
_cell_angle_gamma    90

_space_group_name_H-M_alt    "P 1"
_space_group_IT_number       1

loop_
  _space_group_symop_operation_xyz
  'x, y, z'

loop_
  _atom_site_type_symbol
  _atom_site_label
  _atom_site_symmetry_multiplicity
  _atom_site_fract_x
  _atom_site_fract_y
  _atom_site_fract_z
  _atom_site_occupancy
  Hg  Hg1       1.0  0.84299  0.65701  0.34299  1.0000
  Hg  Hg2       1.0  0.65701  0.34299  0.84299  1.0000
  Hg  Hg3       1.0  0.34299  0.84299  0.65701  1.0000
  Hg  Hg4       1.0  0.15701  0.15701  0.15701  1.0000
  Co  Co1       1.0  0.15022  0.34978  0.65022  1.0000
  Co  Co2       1.0  0.34978  0.65022  0.15022  1.0000
  Co  Co3       1.0  0.65022  0.15022  0.34978  1.0000
  Co  Co4       1.0  0.84978  0.84978  0.84978  1.0000
