data_image0
_chemical_formula_structural       Co8S16
_chemical_formula_sum              "Co8 S16"
_cell_length_a       5.52391
_cell_length_b       10.8565
_cell_length_c       7.67795
_cell_angle_alpha    90
_cell_angle_beta     90
_cell_angle_gamma    90

_space_group_name_H-M_alt    "P 1"
_space_group_IT_number       1

loop_
  _space_group_symop_operation_xyz
  'x, y, z'

loop_
  _atom_site_type_symbol
  _atom_site_label
  _atom_site_symmetry_multiplicity
  _atom_site_fract_x
  _atom_site_fract_y
  _atom_site_fract_z
  _atom_site_occupancy
  Co  Co1       1.0  0.45229  0.93072  0.12754  1.0000
  Co  Co2       1.0  0.04771  0.56928  0.62754  1.0000
  Co  Co3       1.0  0.04771  0.43072  0.87246  1.0000
  Co  Co4       1.0  0.45229  0.06928  0.37246  1.0000
  Co  Co5       1.0  0.54771  0.06928  0.87246  1.0000
  Co  Co6       1.0  0.95229  0.43072  0.37246  1.0000
  Co  Co7       1.0  0.95229  0.56928  0.12754  1.0000
  Co  Co8       1.0  0.54771  0.93072  0.62754  1.0000
  S   S1        1.0  0.27212  0.50000  0.25000  1.0000
  S   S2        1.0  0.22788  0.00000  0.75000  1.0000
  S   S3        1.0  0.72788  0.50000  0.75000  1.0000
  S   S4        1.0  0.77212  0.00000  0.25000  1.0000
  S   S5        1.0  0.34740  0.86970  0.39238  1.0000
  S   S6        1.0  0.15260  0.63030  0.89238  1.0000
  S   S7        1.0  0.15260  0.36970  0.60762  1.0000
  S   S8        1.0  0.34740  0.13030  0.10762  1.0000
  S   S9        1.0  0.65260  0.13030  0.60762  1.0000
  S   S10       1.0  0.84740  0.36970  0.10762  1.0000
  S   S11       1.0  0.84740  0.63030  0.39238  1.0000
  S   S12       1.0  0.65260  0.86970  0.89238  1.0000
  S   S13       1.0  0.50000  0.50000  0.00000  1.0000
  S   S14       1.0  0.00000  0.00000  0.50000  1.0000
  S   S15       1.0  0.00000  0.00000  0.00000  1.0000
  S   S16       1.0  0.50000  0.50000  0.50000  1.0000
