data_image0
_chemical_formula_structural       Co3I4
_chemical_formula_sum              "Co3 I4"
_cell_length_a       8.25612
_cell_length_b       8.25612
_cell_length_c       7.93874
_cell_angle_alpha    53.2804
_cell_angle_beta     53.2804
_cell_angle_gamma    27.8065

_space_group_name_H-M_alt    "P 1"
_space_group_IT_number       1

loop_
  _space_group_symop_operation_xyz
  'x, y, z'

loop_
  _atom_site_type_symbol
  _atom_site_label
  _atom_site_symmetry_multiplicity
  _atom_site_fract_x
  _atom_site_fract_y
  _atom_site_fract_z
  _atom_site_occupancy
  Co  Co1       1.0  0.00000  0.00000  0.00000  1.0000
  Co  Co2       1.0  0.20597  0.20597  0.74900  1.0000
  Co  Co3       1.0  0.79403  0.79403  0.25100  1.0000
  I   I1        1.0  0.14269  0.14269  0.50679  1.0000
  I   I2        1.0  0.85731  0.85731  0.49321  1.0000
  I   I3        1.0  0.60798  0.60798  0.04169  1.0000
  I   I4        1.0  0.39202  0.39202  0.95831  1.0000
