data_image0
_chemical_formula_structural       Co4N8
_chemical_formula_sum              "Co4 N8"
_cell_length_a       4.5622
_cell_length_b       4.56535
_cell_length_c       4.5714
_cell_angle_alpha    90
_cell_angle_beta     90
_cell_angle_gamma    90

_space_group_name_H-M_alt    "P 1"
_space_group_IT_number       1

loop_
  _space_group_symop_operation_xyz
  'x, y, z'

loop_
  _atom_site_type_symbol
  _atom_site_label
  _atom_site_symmetry_multiplicity
  _atom_site_fract_x
  _atom_site_fract_y
  _atom_site_fract_z
  _atom_site_occupancy
  Co  Co1       1.0  0.50000  0.00000  0.50000  1.0000
  Co  Co2       1.0  0.00000  0.50000  0.50000  1.0000
  Co  Co3       1.0  0.50000  0.50000  0.00000  1.0000
  Co  Co4       1.0  0.00000  0.00000  0.00000  1.0000
  N   N1        1.0  0.58267  0.08252  0.08288  1.0000
  N   N2        1.0  0.08267  0.41748  0.91712  1.0000
  N   N3        1.0  0.41733  0.58252  0.41712  1.0000
  N   N4        1.0  0.91733  0.91748  0.58288  1.0000
  N   N5        1.0  0.08267  0.08252  0.41712  1.0000
  N   N6        1.0  0.58267  0.41748  0.58288  1.0000
  N   N7        1.0  0.91733  0.58252  0.08288  1.0000
  N   N8        1.0  0.41733  0.91748  0.91712  1.0000
