data_image0
_chemical_formula_structural       Co6I4
_chemical_formula_sum              "Co6 I4"
_cell_length_a       6.17267
_cell_length_b       6.17267
_cell_length_c       5.11034
_cell_angle_alpha    90
_cell_angle_beta     90
_cell_angle_gamma    90

_space_group_name_H-M_alt    "P 1"
_space_group_IT_number       1

loop_
  _space_group_symop_operation_xyz
  'x, y, z'

loop_
  _atom_site_type_symbol
  _atom_site_label
  _atom_site_symmetry_multiplicity
  _atom_site_fract_x
  _atom_site_fract_y
  _atom_site_fract_z
  _atom_site_occupancy
  Co  Co1       1.0  0.00000  0.00000  0.00000  1.0000
  Co  Co2       1.0  0.50000  0.50000  0.00000  1.0000
  Co  Co3       1.0  0.14062  0.64062  0.81704  1.0000
  Co  Co4       1.0  0.35938  0.14062  0.18296  1.0000
  Co  Co5       1.0  0.64062  0.85938  0.18296  1.0000
  Co  Co6       1.0  0.85938  0.35938  0.81704  1.0000
  I   I1        1.0  0.24040  0.74040  0.29773  1.0000
  I   I2        1.0  0.25960  0.24040  0.70227  1.0000
  I   I3        1.0  0.74040  0.75960  0.70227  1.0000
  I   I4        1.0  0.75960  0.25960  0.29773  1.0000
