data_image0
_chemical_formula_structural       Co2S4
_chemical_formula_sum              "Co2 S4"
_cell_length_a       6.37846
_cell_length_b       6.37846
_cell_length_c       3.45395
_cell_angle_alpha    90
_cell_angle_beta     90
_cell_angle_gamma    115.301

_space_group_name_H-M_alt    "P 1"
_space_group_IT_number       1

loop_
  _space_group_symop_operation_xyz
  'x, y, z'

loop_
  _atom_site_type_symbol
  _atom_site_label
  _atom_site_symmetry_multiplicity
  _atom_site_fract_x
  _atom_site_fract_y
  _atom_site_fract_z
  _atom_site_occupancy
  Co  Co1       1.0  0.12931  0.12931  0.75000  1.0000
  Co  Co2       1.0  0.87069  0.87069  0.25000  1.0000
  S   S1        1.0  0.65461  0.85500  0.75000  1.0000
  S   S2        1.0  0.85500  0.65461  0.75000  1.0000
  S   S3        1.0  0.14500  0.34539  0.25000  1.0000
  S   S4        1.0  0.34539  0.14500  0.25000  1.0000
