data_image0
_chemical_formula_structural       N3Co2
_chemical_formula_sum              "N3 Co2"
_cell_length_a       2.83935
_cell_length_b       2.83935
_cell_length_c       6.80678
_cell_angle_alpha    90
_cell_angle_beta     90
_cell_angle_gamma    120

_space_group_name_H-M_alt    "P 1"
_space_group_IT_number       1

loop_
  _space_group_symop_operation_xyz
  'x, y, z'

loop_
  _atom_site_type_symbol
  _atom_site_label
  _atom_site_symmetry_multiplicity
  _atom_site_fract_x
  _atom_site_fract_y
  _atom_site_fract_z
  _atom_site_occupancy
  N   N1        1.0  0.00000  0.00000  0.00000  1.0000
  N   N2        1.0  0.33333  0.66667  0.69602  1.0000
  N   N3        1.0  0.66667  0.33333  0.30398  1.0000
  Co  Co1       1.0  0.33333  0.66667  0.19454  1.0000
  Co  Co2       1.0  0.66667  0.33333  0.80546  1.0000
