data_image0
_chemical_formula_structural       Co3N2
_chemical_formula_sum              "Co3 N2"
_cell_length_a       3.62041
_cell_length_b       3.62041
_cell_length_c       3.62041
_cell_angle_alpha    79.6798
_cell_angle_beta     79.6798
_cell_angle_gamma    79.6798

_space_group_name_H-M_alt    "P 1"
_space_group_IT_number       1

loop_
  _space_group_symop_operation_xyz
  'x, y, z'

loop_
  _atom_site_type_symbol
  _atom_site_label
  _atom_site_symmetry_multiplicity
  _atom_site_fract_x
  _atom_site_fract_y
  _atom_site_fract_z
  _atom_site_occupancy
  Co  Co1       1.0  0.68636  0.31364  0.00000  1.0000
  Co  Co2       1.0  0.31364  0.00000  0.68636  1.0000
  Co  Co3       1.0  1.00000  0.68636  0.31364  1.0000
  N   N1        1.0  0.19135  0.19135  0.19135  1.0000
  N   N2        1.0  0.80865  0.80865  0.80865  1.0000
