data_image0
_chemical_formula_structural       I10Co6
_chemical_formula_sum              "I10 Co6"
_cell_length_a       9.80562
_cell_length_b       9.80562
_cell_length_c       9.80562
_cell_angle_alpha    134.771
_cell_angle_beta     134.771
_cell_angle_gamma    65.8868

_space_group_name_H-M_alt    "P 1"
_space_group_IT_number       1

loop_
  _space_group_symop_operation_xyz
  'x, y, z'

loop_
  _atom_site_type_symbol
  _atom_site_label
  _atom_site_symmetry_multiplicity
  _atom_site_fract_x
  _atom_site_fract_y
  _atom_site_fract_z
  _atom_site_occupancy
  I   I1        1.0  0.53810  0.65711  0.50000  1.0000
  I   I2        1.0  0.46190  0.34289  0.50000  1.0000
  I   I3        1.0  0.50000  0.50000  0.00000  1.0000
  I   I4        1.0  0.00000  0.00000  0.00000  1.0000
  I   I5        1.0  0.15711  0.03810  0.50000  1.0000
  I   I6        1.0  0.03810  0.53810  0.88100  1.0000
  I   I7        1.0  0.65711  0.15711  0.11900  1.0000
  I   I8        1.0  0.34289  0.84289  0.88100  1.0000
  I   I9        1.0  0.96190  0.46190  0.11900  1.0000
  I   I10       1.0  0.84289  0.96190  0.50000  1.0000
  Co  Co1       1.0  0.71686  0.78314  0.50000  1.0000
  Co  Co2       1.0  0.78314  0.28314  0.06628  1.0000
  Co  Co3       1.0  0.21686  0.71686  0.93372  1.0000
  Co  Co4       1.0  0.28314  0.21686  0.50000  1.0000
  Co  Co5       1.0  0.25000  0.25000  0.00000  1.0000
  Co  Co6       1.0  0.75000  0.75000  0.00000  1.0000
