data_image0
_chemical_formula_structural       Co8Hg8
_chemical_formula_sum              "Co8 Hg8"
_cell_length_a       6.38453
_cell_length_b       6.38453
_cell_length_c       7.77078
_cell_angle_alpha    90
_cell_angle_beta     90
_cell_angle_gamma    90

_space_group_name_H-M_alt    "P 1"
_space_group_IT_number       1

loop_
  _space_group_symop_operation_xyz
  'x, y, z'

loop_
  _atom_site_type_symbol
  _atom_site_label
  _atom_site_symmetry_multiplicity
  _atom_site_fract_x
  _atom_site_fract_y
  _atom_site_fract_z
  _atom_site_occupancy
  Co  Co1       1.0  0.64622  0.60048  0.00000  1.0000
  Co  Co2       1.0  0.39952  0.64622  0.50000  1.0000
  Co  Co3       1.0  0.60048  0.35378  0.50000  1.0000
  Co  Co4       1.0  0.35378  0.39952  0.00000  1.0000
  Co  Co5       1.0  0.50000  0.00000  0.50000  1.0000
  Co  Co6       1.0  0.00000  0.50000  0.00000  1.0000
  Co  Co7       1.0  0.00000  0.00000  0.75000  1.0000
  Co  Co8       1.0  0.00000  0.00000  0.25000  1.0000
  Hg  Hg1       1.0  0.20796  0.33488  0.68685  1.0000
  Hg  Hg2       1.0  0.66512  0.20796  0.18685  1.0000
  Hg  Hg3       1.0  0.33488  0.79204  0.18685  1.0000
  Hg  Hg4       1.0  0.79204  0.66512  0.68685  1.0000
  Hg  Hg5       1.0  0.79204  0.66512  0.31315  1.0000
  Hg  Hg6       1.0  0.33488  0.79204  0.81315  1.0000
  Hg  Hg7       1.0  0.66512  0.20796  0.81315  1.0000
  Hg  Hg8       1.0  0.20796  0.33488  0.31315  1.0000
