data_image0
_chemical_formula_structural       CoHg2
_chemical_formula_sum              "Co1 Hg2"
_cell_length_a       3.14641
_cell_length_b       3.14641
_cell_length_c       6.83919
_cell_angle_alpha    90.5388
_cell_angle_beta     90.5388
_cell_angle_gamma    59.1409

_space_group_name_H-M_alt    "P 1"
_space_group_IT_number       1

loop_
  _space_group_symop_operation_xyz
  'x, y, z'

loop_
  _atom_site_type_symbol
  _atom_site_label
  _atom_site_symmetry_multiplicity
  _atom_site_fract_x
  _atom_site_fract_y
  _atom_site_fract_z
  _atom_site_occupancy
  Co  Co1       1.0  0.66708  0.33292  0.50000  1.0000
  Hg  Hg1       1.0  0.33798  0.00506  0.80123  1.0000
  Hg  Hg2       1.0  0.99494  0.66202  0.19877  1.0000
