data_image0
_chemical_formula_structural       Co3N8
_chemical_formula_sum              "Co3 N8"
_cell_length_a       4.61884
_cell_length_b       4.61884
_cell_length_c       4.61884
_cell_angle_alpha    90.4471
_cell_angle_beta     90.4471
_cell_angle_gamma    90.4471

_space_group_name_H-M_alt    "P 1"
_space_group_IT_number       1

loop_
  _space_group_symop_operation_xyz
  'x, y, z'

loop_
  _atom_site_type_symbol
  _atom_site_label
  _atom_site_symmetry_multiplicity
  _atom_site_fract_x
  _atom_site_fract_y
  _atom_site_fract_z
  _atom_site_occupancy
  Co  Co1       1.0  0.50000  0.00000  0.50000  1.0000
  Co  Co2       1.0  0.00000  0.50000  0.50000  1.0000
  Co  Co3       1.0  0.50000  0.50000  0.00000  1.0000
  N   N1        1.0  0.49999  0.90735  0.09264  1.0000
  N   N2        1.0  0.90735  0.09264  0.49999  1.0000
  N   N3        1.0  0.09264  0.49999  0.90735  1.0000
  N   N4        1.0  0.58275  0.58275  0.58275  1.0000
  N   N5        1.0  0.41725  0.41725  0.41725  1.0000
  N   N6        1.0  0.90736  0.50001  0.09265  1.0000
  N   N7        1.0  0.09265  0.90736  0.50001  1.0000
  N   N8        1.0  0.50001  0.09265  0.90736  1.0000
