data_image0
_chemical_formula_structural       Co2I6
_chemical_formula_sum              "Co2 I6"
_cell_length_a       3.94862
_cell_length_b       8.54654
_cell_length_c       11.1731
_cell_angle_alpha    90
_cell_angle_beta     90
_cell_angle_gamma    90

_space_group_name_H-M_alt    "P 1"
_space_group_IT_number       1

loop_
  _space_group_symop_operation_xyz
  'x, y, z'

loop_
  _atom_site_type_symbol
  _atom_site_label
  _atom_site_symmetry_multiplicity
  _atom_site_fract_x
  _atom_site_fract_y
  _atom_site_fract_z
  _atom_site_occupancy
  Co  Co1       1.0  0.50000  0.34669  0.50000  1.0000
  Co  Co2       1.0  0.00000  0.65331  0.00000  1.0000
  I   I1        1.0  0.50000  0.18978  0.68501  1.0000
  I   I2        1.0  0.50000  0.18978  0.31499  1.0000
  I   I3        1.0  0.00000  0.81022  0.81499  1.0000
  I   I4        1.0  0.00000  0.81022  0.18501  1.0000
  I   I5        1.0  0.00000  0.53784  0.50000  1.0000
  I   I6        1.0  0.50000  0.46216  0.00000  1.0000
