data_image0
_chemical_formula_structural       I3Co3
_chemical_formula_sum              "I3 Co3"
_cell_length_a       4.17255
_cell_length_b       4.17255
_cell_length_c       9.59064
_cell_angle_alpha    90
_cell_angle_beta     90
_cell_angle_gamma    120

_space_group_name_H-M_alt    "P 1"
_space_group_IT_number       1

loop_
  _space_group_symop_operation_xyz
  'x, y, z'

loop_
  _atom_site_type_symbol
  _atom_site_label
  _atom_site_symmetry_multiplicity
  _atom_site_fract_x
  _atom_site_fract_y
  _atom_site_fract_z
  _atom_site_occupancy
  I   I1        1.0  0.45064  0.45064  0.00000  1.0000
  I   I2        1.0  0.00000  0.54936  0.66667  1.0000
  I   I3        1.0  0.54936  0.00000  0.33333  1.0000
  Co  Co1       1.0  0.43721  0.43721  0.50000  1.0000
  Co  Co2       1.0  1.00000  0.56279  0.16667  1.0000
  Co  Co3       1.0  0.56279  1.00000  0.83333  1.0000
