data_image0
_chemical_formula_structural       Co2N3
_chemical_formula_sum              "Co2 N3"
_cell_length_a       6.99498
_cell_length_b       6.99498
_cell_length_c       6.99498
_cell_angle_alpha    23.3142
_cell_angle_beta     23.3142
_cell_angle_gamma    23.3142

_space_group_name_H-M_alt    "P 1"
_space_group_IT_number       1

loop_
  _space_group_symop_operation_xyz
  'x, y, z'

loop_
  _atom_site_type_symbol
  _atom_site_label
  _atom_site_symmetry_multiplicity
  _atom_site_fract_x
  _atom_site_fract_y
  _atom_site_fract_z
  _atom_site_occupancy
  Co  Co1       1.0  0.60144  0.60144  0.60144  1.0000
  Co  Co2       1.0  0.39856  0.39856  0.39856  1.0000
  N   N1        1.0  0.00000  0.00000  0.00000  1.0000
  N   N2        1.0  0.23059  0.23059  0.23059  1.0000
  N   N3        1.0  0.76941  0.76941  0.76941  1.0000
