data_image0
_chemical_formula_structural       Co3N4
_chemical_formula_sum              "Co3 N4"
_cell_length_a       5.26353
_cell_length_b       5.26353
_cell_length_c       4.77779
_cell_angle_alpha    64.6429
_cell_angle_beta     64.6429
_cell_angle_gamma    30.3102

_space_group_name_H-M_alt    "P 1"
_space_group_IT_number       1

loop_
  _space_group_symop_operation_xyz
  'x, y, z'

loop_
  _atom_site_type_symbol
  _atom_site_label
  _atom_site_symmetry_multiplicity
  _atom_site_fract_x
  _atom_site_fract_y
  _atom_site_fract_z
  _atom_site_occupancy
  Co  Co1       1.0  0.21167  0.21167  0.80613  1.0000
  Co  Co2       1.0  0.78833  0.78833  0.19387  1.0000
  Co  Co3       1.0  0.50000  0.50000  0.50000  1.0000
  N   N1        1.0  0.86761  0.86761  0.47626  1.0000
  N   N2        1.0  0.13239  0.13239  0.52374  1.0000
  N   N3        1.0  0.37707  0.37707  0.93447  1.0000
  N   N4        1.0  0.62293  0.62293  0.06553  1.0000
