data_image0
_chemical_formula_structural       Co8Se16
_chemical_formula_sum              "Co8 Se16"
_cell_length_a       6.30222
_cell_length_b       10.884
_cell_length_c       8.10437
_cell_angle_alpha    90
_cell_angle_beta     90
_cell_angle_gamma    90

_space_group_name_H-M_alt    "P 1"
_space_group_IT_number       1

loop_
  _space_group_symop_operation_xyz
  'x, y, z'

loop_
  _atom_site_type_symbol
  _atom_site_label
  _atom_site_symmetry_multiplicity
  _atom_site_fract_x
  _atom_site_fract_y
  _atom_site_fract_z
  _atom_site_occupancy
  Co  Co1       1.0  0.45601  0.93161  0.12557  1.0000
  Co  Co2       1.0  0.04399  0.56839  0.62557  1.0000
  Co  Co3       1.0  0.04399  0.43161  0.87443  1.0000
  Co  Co4       1.0  0.45601  0.06839  0.37443  1.0000
  Co  Co5       1.0  0.54399  0.06839  0.87443  1.0000
  Co  Co6       1.0  0.95601  0.43161  0.37443  1.0000
  Co  Co7       1.0  0.95601  0.56839  0.12557  1.0000
  Co  Co8       1.0  0.54399  0.93161  0.62557  1.0000
  Se  Se1       1.0  0.25382  0.50000  0.25000  1.0000
  Se  Se2       1.0  0.24618  0.00000  0.75000  1.0000
  Se  Se3       1.0  0.74618  0.50000  0.75000  1.0000
  Se  Se4       1.0  0.75382  0.00000  0.25000  1.0000
  Se  Se5       1.0  0.35191  0.86265  0.39123  1.0000
  Se  Se6       1.0  0.14809  0.63735  0.89123  1.0000
  Se  Se7       1.0  0.14809  0.36265  0.60877  1.0000
  Se  Se8       1.0  0.35191  0.13735  0.10877  1.0000
  Se  Se9       1.0  0.64809  0.13735  0.60877  1.0000
  Se  Se10      1.0  0.85191  0.36265  0.10877  1.0000
  Se  Se11      1.0  0.85191  0.63735  0.39123  1.0000
  Se  Se12      1.0  0.64809  0.86265  0.89123  1.0000
  Se  Se13      1.0  0.50000  0.50000  0.00000  1.0000
  Se  Se14      1.0  0.00000  0.00000  0.50000  1.0000
  Se  Se15      1.0  0.00000  0.00000  0.00000  1.0000
  Se  Se16      1.0  0.50000  0.50000  0.50000  1.0000
