data_image0
_chemical_formula_structural       Co6S10
_chemical_formula_sum              "Co6 S10"
_cell_length_a       3.25374
_cell_length_b       8.34647
_cell_length_c       11.1864
_cell_angle_alpha    90
_cell_angle_beta     90
_cell_angle_gamma    90

_space_group_name_H-M_alt    "P 1"
_space_group_IT_number       1

loop_
  _space_group_symop_operation_xyz
  'x, y, z'

loop_
  _atom_site_type_symbol
  _atom_site_label
  _atom_site_symmetry_multiplicity
  _atom_site_fract_x
  _atom_site_fract_y
  _atom_site_fract_z
  _atom_site_occupancy
  Co  Co1       1.0  0.50000  0.32306  0.95029  1.0000
  Co  Co2       1.0  0.50000  0.82306  0.54971  1.0000
  Co  Co3       1.0  0.00000  0.50000  0.50000  1.0000
  Co  Co4       1.0  0.00000  0.00000  0.00000  1.0000
  Co  Co5       1.0  0.50000  0.67694  0.04971  1.0000
  Co  Co6       1.0  0.50000  0.17694  0.45029  1.0000
  S   S1        1.0  0.50000  0.64186  0.41295  1.0000
  S   S2        1.0  0.50000  0.35814  0.58705  1.0000
  S   S3        1.0  0.00000  0.19510  0.85910  1.0000
  S   S4        1.0  0.50000  0.85814  0.91295  1.0000
  S   S5        1.0  0.00000  0.30490  0.35910  1.0000
  S   S6        1.0  0.00000  0.80490  0.14090  1.0000
  S   S7        1.0  0.00000  0.69510  0.64090  1.0000
  S   S8        1.0  0.00000  0.50000  0.00000  1.0000
  S   S9        1.0  0.00000  0.00000  0.50000  1.0000
  S   S10       1.0  0.50000  0.14186  0.08705  1.0000
