data_image0
_chemical_formula_structural       CoSe2
_chemical_formula_sum              "Co1 Se2"
_cell_length_a       3.49007
_cell_length_b       3.49007
_cell_length_c       5.26874
_cell_angle_alpha    90.0573
_cell_angle_beta     90.0573
_cell_angle_gamma    59.7979

_space_group_name_H-M_alt    "P 1"
_space_group_IT_number       1

loop_
  _space_group_symop_operation_xyz
  'x, y, z'

loop_
  _atom_site_type_symbol
  _atom_site_label
  _atom_site_symmetry_multiplicity
  _atom_site_fract_x
  _atom_site_fract_y
  _atom_site_fract_z
  _atom_site_occupancy
  Co  Co1       1.0  0.66715  0.33285  0.50000  1.0000
  Se  Se1       1.0  0.33421  0.00136  0.73824  1.0000
  Se  Se2       1.0  0.99864  0.66579  0.26176  1.0000
