data_image0
_chemical_formula_structural       Co2Se4
_chemical_formula_sum              "Co2 Se4"
_cell_length_a       6.72103
_cell_length_b       6.72103
_cell_length_c       3.6904
_cell_angle_alpha    90
_cell_angle_beta     90
_cell_angle_gamma    128.579

_space_group_name_H-M_alt    "P 1"
_space_group_IT_number       1

loop_
  _space_group_symop_operation_xyz
  'x, y, z'

loop_
  _atom_site_type_symbol
  _atom_site_label
  _atom_site_symmetry_multiplicity
  _atom_site_fract_x
  _atom_site_fract_y
  _atom_site_fract_z
  _atom_site_occupancy
  Co  Co1       1.0  0.13260  0.13260  0.75000  1.0000
  Co  Co2       1.0  0.86740  0.86740  0.25000  1.0000
  Se  Se1       1.0  0.66763  0.90374  0.75000  1.0000
  Se  Se2       1.0  0.90374  0.66763  0.75000  1.0000
  Se  Se3       1.0  0.09626  0.33237  0.25000  1.0000
  Se  Se4       1.0  0.33237  0.09626  0.25000  1.0000
