data_image0
_chemical_formula_structural       Co2S4
_chemical_formula_sum              "Co2 S4"
_cell_length_a       4.86122
_cell_length_b       4.86122
_cell_length_c       4.86122
_cell_angle_alpha    112.362
_cell_angle_beta     112.362
_cell_angle_gamma    103.832

_space_group_name_H-M_alt    "P 1"
_space_group_IT_number       1

loop_
  _space_group_symop_operation_xyz
  'x, y, z'

loop_
  _atom_site_type_symbol
  _atom_site_label
  _atom_site_symmetry_multiplicity
  _atom_site_fract_x
  _atom_site_fract_y
  _atom_site_fract_z
  _atom_site_occupancy
  Co  Co1       1.0  0.25000  0.25000  0.00000  1.0000
  Co  Co2       1.0  0.75000  0.75000  0.00000  1.0000
  S   S1        1.0  0.63710  0.13710  0.77420  1.0000
  S   S2        1.0  0.36290  0.86290  0.22580  1.0000
  S   S3        1.0  0.86290  0.63710  0.50000  1.0000
  S   S4        1.0  0.13710  0.36290  0.50000  1.0000
