data_image0
_chemical_formula_structural       S8Co4
_chemical_formula_sum              "S8 Co4"
_cell_length_a       4.507
_cell_length_b       6.9483
_cell_length_c       6.49352
_cell_angle_alpha    57.6733
_cell_angle_beta     90
_cell_angle_gamma    90

_space_group_name_H-M_alt    "P 1"
_space_group_IT_number       1

loop_
  _space_group_symop_operation_xyz
  'x, y, z'

loop_
  _atom_site_type_symbol
  _atom_site_label
  _atom_site_symmetry_multiplicity
  _atom_site_fract_x
  _atom_site_fract_y
  _atom_site_fract_z
  _atom_site_occupancy
  S   S1        1.0  0.19293  0.05809  0.38338  1.0000
  S   S2        1.0  0.69293  0.94191  0.11662  1.0000
  S   S3        1.0  0.80707  0.94191  0.61662  1.0000
  S   S4        1.0  0.30707  0.05809  0.88338  1.0000
  S   S5        1.0  0.80727  0.44181  0.61662  1.0000
  S   S6        1.0  0.30727  0.55819  0.88338  1.0000
  S   S7        1.0  0.19273  0.55819  0.38338  1.0000
  S   S8        1.0  0.69273  0.44181  0.11662  1.0000
  Co  Co1       1.0  0.00043  0.24989  0.99991  1.0000
  Co  Co2       1.0  0.50043  0.75011  0.50009  1.0000
  Co  Co3       1.0  0.99957  0.75011  0.00009  1.0000
  Co  Co4       1.0  0.49957  0.24989  0.49991  1.0000
