data_image0
_chemical_formula_structural       S10Co6
_chemical_formula_sum              "S10 Co6"
_cell_length_a       7.07548
_cell_length_b       7.07548
_cell_length_c       7.07548
_cell_angle_alpha    126.542
_cell_angle_beta     126.542
_cell_angle_gamma    78.9986

_space_group_name_H-M_alt    "P 1"
_space_group_IT_number       1

loop_
  _space_group_symop_operation_xyz
  'x, y, z'

loop_
  _atom_site_type_symbol
  _atom_site_label
  _atom_site_symmetry_multiplicity
  _atom_site_fract_x
  _atom_site_fract_y
  _atom_site_fract_z
  _atom_site_occupancy
  S   S1        1.0  0.53399  0.68929  0.50000  1.0000
  S   S2        1.0  0.46601  0.31071  0.50000  1.0000
  S   S3        1.0  0.50000  0.50000  0.00000  1.0000
  S   S4        1.0  0.00000  0.00000  0.00000  1.0000
  S   S5        1.0  0.18929  0.03399  0.50000  1.0000
  S   S6        1.0  0.03399  0.53399  0.84471  1.0000
  S   S7        1.0  0.68929  0.18929  0.15529  1.0000
  S   S8        1.0  0.31071  0.81071  0.84471  1.0000
  S   S9        1.0  0.96601  0.46601  0.15529  1.0000
  S   S10       1.0  0.81071  0.96601  0.50000  1.0000
  Co  Co1       1.0  0.86068  0.63932  0.50000  1.0000
  Co  Co2       1.0  0.63932  0.13932  0.77865  1.0000
  Co  Co3       1.0  0.36068  0.86068  0.22135  1.0000
  Co  Co4       1.0  0.13932  0.36068  0.50000  1.0000
  Co  Co5       1.0  0.25000  0.25000  0.00000  1.0000
  Co  Co6       1.0  0.75000  0.75000  0.00000  1.0000
