data_image0
_chemical_formula_structural       CoS4
_chemical_formula_sum              "Co1 S4"
_cell_length_a       6.64988
_cell_length_b       6.64988
_cell_length_c       6.64988
_cell_angle_alpha    93.1444
_cell_angle_beta     93.1444
_cell_angle_gamma    152.91

_space_group_name_H-M_alt    "P 1"
_space_group_IT_number       1

loop_
  _space_group_symop_operation_xyz
  'x, y, z'

loop_
  _atom_site_type_symbol
  _atom_site_label
  _atom_site_symmetry_multiplicity
  _atom_site_fract_x
  _atom_site_fract_y
  _atom_site_fract_z
  _atom_site_occupancy
  Co  Co1       1.0  0.00000  0.00000  0.00000  1.0000
  S   S1        1.0  0.61827  0.35730  0.97557  1.0000
  S   S2        1.0  0.38173  0.64270  0.02443  1.0000
  S   S3        1.0  0.64270  0.61827  0.26097  1.0000
  S   S4        1.0  0.35730  0.38173  0.73903  1.0000
