data_image0
_chemical_formula_structural       Co6Se4
_chemical_formula_sum              "Co6 Se4"
_cell_length_a       6.04045
_cell_length_b       6.04045
_cell_length_c       4.28149
_cell_angle_alpha    90
_cell_angle_beta     90
_cell_angle_gamma    90

_space_group_name_H-M_alt    "P 1"
_space_group_IT_number       1

loop_
  _space_group_symop_operation_xyz
  'x, y, z'

loop_
  _atom_site_type_symbol
  _atom_site_label
  _atom_site_symmetry_multiplicity
  _atom_site_fract_x
  _atom_site_fract_y
  _atom_site_fract_z
  _atom_site_occupancy
  Co  Co1       1.0  0.00000  0.00000  0.00000  1.0000
  Co  Co2       1.0  0.50000  0.50000  0.00000  1.0000
  Co  Co3       1.0  0.14426  0.64426  0.79259  1.0000
  Co  Co4       1.0  0.35574  0.14426  0.20741  1.0000
  Co  Co5       1.0  0.64426  0.85574  0.20741  1.0000
  Co  Co6       1.0  0.85574  0.35574  0.79259  1.0000
  Se  Se1       1.0  0.26461  0.76461  0.29163  1.0000
  Se  Se2       1.0  0.23539  0.26461  0.70837  1.0000
  Se  Se3       1.0  0.76461  0.73539  0.70837  1.0000
  Se  Se4       1.0  0.73539  0.23539  0.29163  1.0000
