data_image0
_chemical_formula_structural       Co8Se12
_chemical_formula_sum              "Co8 Se12"
_cell_length_a       3.29489
_cell_length_b       8.27165
_cell_length_c       14.5123
_cell_angle_alpha    90
_cell_angle_beta     90
_cell_angle_gamma    90

_space_group_name_H-M_alt    "P 1"
_space_group_IT_number       1

loop_
  _space_group_symop_operation_xyz
  'x, y, z'

loop_
  _atom_site_type_symbol
  _atom_site_label
  _atom_site_symmetry_multiplicity
  _atom_site_fract_x
  _atom_site_fract_y
  _atom_site_fract_z
  _atom_site_occupancy
  Co  Co1       1.0  0.25000  0.94969  0.93088  1.0000
  Co  Co2       1.0  0.75000  0.05031  0.06912  1.0000
  Co  Co3       1.0  0.75000  0.44969  0.56912  1.0000
  Co  Co4       1.0  0.25000  0.55031  0.43088  1.0000
  Co  Co5       1.0  0.25000  0.18212  0.53293  1.0000
  Co  Co6       1.0  0.75000  0.81788  0.46707  1.0000
  Co  Co7       1.0  0.75000  0.68212  0.96707  1.0000
  Co  Co8       1.0  0.25000  0.31788  0.03293  1.0000
  Se  Se1       1.0  0.25000  0.33779  0.66420  1.0000
  Se  Se2       1.0  0.75000  0.66221  0.33580  1.0000
  Se  Se3       1.0  0.75000  0.83779  0.83580  1.0000
  Se  Se4       1.0  0.25000  0.16221  0.16420  1.0000
  Se  Se5       1.0  0.25000  0.99036  0.40805  1.0000
  Se  Se6       1.0  0.75000  0.00964  0.59195  1.0000
  Se  Se7       1.0  0.75000  0.49036  0.09195  1.0000
  Se  Se8       1.0  0.25000  0.50964  0.90805  1.0000
  Se  Se9       1.0  0.25000  0.83259  0.07471  1.0000
  Se  Se10      1.0  0.75000  0.16741  0.92529  1.0000
  Se  Se11      1.0  0.75000  0.33259  0.42529  1.0000
  Se  Se12      1.0  0.25000  0.66741  0.57471  1.0000
