data_image0
_chemical_formula_structural       Co2S6
_chemical_formula_sum              "Co2 S6"
_cell_length_a       9.03101
_cell_length_b       9.03101
_cell_length_c       9.03101
_cell_angle_alpha    152.973
_cell_angle_beta     152.973
_cell_angle_gamma    38.5937

_space_group_name_H-M_alt    "P 1"
_space_group_IT_number       1

loop_
  _space_group_symop_operation_xyz
  'x, y, z'

loop_
  _atom_site_type_symbol
  _atom_site_label
  _atom_site_symmetry_multiplicity
  _atom_site_fract_x
  _atom_site_fract_y
  _atom_site_fract_z
  _atom_site_occupancy
  Co  Co1       1.0  0.70380  0.70380  0.00000  1.0000
  Co  Co2       1.0  0.29620  0.29620  0.00000  1.0000
  S   S1        1.0  0.00000  0.50000  0.50000  1.0000
  S   S2        1.0  0.50000  1.00000  0.50000  1.0000
  S   S3        1.0  0.75000  0.25000  0.50000  1.0000
  S   S4        1.0  0.25000  0.75000  0.50000  1.0000
  S   S5        1.0  0.58261  0.58261  0.00000  1.0000
  S   S6        1.0  0.41739  0.41739  0.00000  1.0000
