data_image0
_chemical_formula_structural       CuAg2
_chemical_formula_sum              "Cu1 Ag2"
_cell_length_a       4.98376
_cell_length_b       4.98376
_cell_length_c       4.98376
_cell_angle_alpha    145.98
_cell_angle_beta     135.562
_cell_angle_gamma    57.1224

_space_group_name_H-M_alt    "P 1"
_space_group_IT_number       1

loop_
  _space_group_symop_operation_xyz
  'x, y, z'

loop_
  _atom_site_type_symbol
  _atom_site_label
  _atom_site_symmetry_multiplicity
  _atom_site_fract_x
  _atom_site_fract_y
  _atom_site_fract_z
  _atom_site_occupancy
  Cu  Cu1       1.0  0.00000  0.00000  0.00000  1.0000
  Ag  Ag1       1.0  0.66000  0.66000  0.00000  1.0000
  Ag  Ag2       1.0  0.34000  0.34000  0.00000  1.0000
