data_image0
_chemical_formula_structural       Co2Se6
_chemical_formula_sum              "Co2 Se6"
_cell_length_a       4.9237
_cell_length_b       3.49407
_cell_length_c       8.48608
_cell_angle_alpha    90
_cell_angle_beta     90
_cell_angle_gamma    90

_space_group_name_H-M_alt    "P 1"
_space_group_IT_number       1

loop_
  _space_group_symop_operation_xyz
  'x, y, z'

loop_
  _atom_site_type_symbol
  _atom_site_label
  _atom_site_symmetry_multiplicity
  _atom_site_fract_x
  _atom_site_fract_y
  _atom_site_fract_z
  _atom_site_occupancy
  Co  Co1       1.0  0.50000  0.50965  0.50000  1.0000
  Co  Co2       1.0  0.00000  0.49035  0.00000  1.0000
  Se  Se1       1.0  0.50000  0.00977  0.68954  1.0000
  Se  Se2       1.0  0.50000  0.00977  0.31046  1.0000
  Se  Se3       1.0  0.00000  0.99023  0.81046  1.0000
  Se  Se4       1.0  0.00000  0.99023  0.18954  1.0000
  Se  Se5       1.0  0.00000  0.51870  0.50000  1.0000
  Se  Se6       1.0  0.50000  0.48130  0.00000  1.0000
