data_image0
_chemical_formula_structural       Co2Se2
_chemical_formula_sum              "Co2 Se2"
_cell_length_a       2.92555
_cell_length_b       4.05297
_cell_length_c       5.81988
_cell_angle_alpha    90
_cell_angle_beta     90
_cell_angle_gamma    90

_space_group_name_H-M_alt    "P 1"
_space_group_IT_number       1

loop_
  _space_group_symop_operation_xyz
  'x, y, z'

loop_
  _atom_site_type_symbol
  _atom_site_label
  _atom_site_symmetry_multiplicity
  _atom_site_fract_x
  _atom_site_fract_y
  _atom_site_fract_z
  _atom_site_occupancy
  Co  Co1       1.0  0.00000  0.75000  0.38640  1.0000
  Co  Co2       1.0  0.00000  0.25000  0.61360  1.0000
  Se  Se1       1.0  0.50000  0.75000  0.72068  1.0000
  Se  Se2       1.0  0.50000  0.25000  0.27932  1.0000
