data_image0
_chemical_formula_structural       CoS4
_chemical_formula_sum              "Co1 S4"
_cell_length_a       6.23103
_cell_length_b       6.23103
_cell_length_c       6.23103
_cell_angle_alpha    93.6059
_cell_angle_beta     93.6059
_cell_angle_gamma    150.952

_space_group_name_H-M_alt    "P 1"
_space_group_IT_number       1

loop_
  _space_group_symop_operation_xyz
  'x, y, z'

loop_
  _atom_site_type_symbol
  _atom_site_label
  _atom_site_symmetry_multiplicity
  _atom_site_fract_x
  _atom_site_fract_y
  _atom_site_fract_z
  _atom_site_occupancy
  Co  Co1       1.0  0.00000  0.00000  0.00000  1.0000
  S   S1        1.0  0.67809  0.58793  0.26602  1.0000
  S   S2        1.0  0.41207  0.67809  0.09016  1.0000
  S   S3        1.0  0.58793  0.32191  0.90984  1.0000
  S   S4        1.0  0.32191  0.41207  0.73398  1.0000
