data_image0
_chemical_formula_structural       Co6Se20
_chemical_formula_sum              "Co6 Se20"
_cell_length_a       13.9471
_cell_length_b       13.9471
_cell_length_c       3.35298
_cell_angle_alpha    90
_cell_angle_beta     90
_cell_angle_gamma    120

_space_group_name_H-M_alt    "P 1"
_space_group_IT_number       1

loop_
  _space_group_symop_operation_xyz
  'x, y, z'

loop_
  _atom_site_type_symbol
  _atom_site_label
  _atom_site_symmetry_multiplicity
  _atom_site_fract_x
  _atom_site_fract_y
  _atom_site_fract_z
  _atom_site_occupancy
  Co  Co1       1.0  0.63211  0.73619  0.25000  1.0000
  Co  Co2       1.0  0.26381  0.89591  0.25000  1.0000
  Co  Co3       1.0  0.10409  0.36789  0.25000  1.0000
  Co  Co4       1.0  0.36789  0.26381  0.75000  1.0000
  Co  Co5       1.0  0.73619  0.10409  0.75000  1.0000
  Co  Co6       1.0  0.89591  0.63211  0.75000  1.0000
  Se  Se1       1.0  0.84010  0.07936  0.25000  1.0000
  Se  Se2       1.0  0.92064  0.76074  0.25000  1.0000
  Se  Se3       1.0  0.23926  0.15990  0.25000  1.0000
  Se  Se4       1.0  0.15990  0.92064  0.75000  1.0000
  Se  Se5       1.0  0.07936  0.23926  0.75000  1.0000
  Se  Se6       1.0  0.76074  0.84010  0.75000  1.0000
  Se  Se7       1.0  0.60282  0.00832  0.25000  1.0000
  Se  Se8       1.0  0.99168  0.59451  0.25000  1.0000
  Se  Se9       1.0  0.40549  0.39718  0.25000  1.0000
  Se  Se10      1.0  0.39718  0.99168  0.75000  1.0000
  Se  Se11      1.0  0.00832  0.40549  0.75000  1.0000
  Se  Se12      1.0  0.59451  0.60282  0.75000  1.0000
  Se  Se13      1.0  0.77294  0.24023  0.25000  1.0000
  Se  Se14      1.0  0.75977  0.53271  0.25000  1.0000
  Se  Se15      1.0  0.46729  0.22706  0.25000  1.0000
  Se  Se16      1.0  0.22706  0.75977  0.75000  1.0000
  Se  Se17      1.0  0.24023  0.46729  0.75000  1.0000
  Se  Se18      1.0  0.53271  0.77294  0.75000  1.0000
  Se  Se19      1.0  0.66667  0.33333  0.75000  1.0000
  Se  Se20      1.0  0.33333  0.66667  0.25000  1.0000
