data_image0
_chemical_formula_structural       Co4Se8
_chemical_formula_sum              "Co4 Se8"
_cell_length_a       11.4827
_cell_length_b       11.4827
_cell_length_c       6.37202
_cell_angle_alpha    90
_cell_angle_beta     90
_cell_angle_gamma    163.062

_space_group_name_H-M_alt    "P 1"
_space_group_IT_number       1

loop_
  _space_group_symop_operation_xyz
  'x, y, z'

loop_
  _atom_site_type_symbol
  _atom_site_label
  _atom_site_symmetry_multiplicity
  _atom_site_fract_x
  _atom_site_fract_y
  _atom_site_fract_z
  _atom_site_occupancy
  Co  Co1       1.0  0.60462  0.39538  0.88613  1.0000
  Co  Co2       1.0  0.39538  0.60462  0.38613  1.0000
  Co  Co3       1.0  0.14833  0.85167  0.16916  1.0000
  Co  Co4       1.0  0.85167  0.14833  0.66916  1.0000
  Se  Se1       1.0  0.95146  0.04854  0.23527  1.0000
  Se  Se2       1.0  0.04854  0.95146  0.73527  1.0000
  Se  Se3       1.0  0.17642  0.82358  0.82401  1.0000
  Se  Se4       1.0  0.82358  0.17642  0.32401  1.0000
  Se  Se5       1.0  0.30104  0.69896  0.84715  1.0000
  Se  Se6       1.0  0.69896  0.30104  0.34715  1.0000
  Se  Se7       1.0  0.57737  0.42263  0.22397  1.0000
  Se  Se8       1.0  0.42263  0.57737  0.72397  1.0000
