data_image0
_chemical_formula_structural       Co6S16
_chemical_formula_sum              "Co6 S16"
_cell_length_a       5.48222
_cell_length_b       5.49015
_cell_length_c       12.2924
_cell_angle_alpha    63.7307
_cell_angle_beta     90
_cell_angle_gamma    90

_space_group_name_H-M_alt    "P 1"
_space_group_IT_number       1

loop_
  _space_group_symop_operation_xyz
  'x, y, z'

loop_
  _atom_site_type_symbol
  _atom_site_label
  _atom_site_symmetry_multiplicity
  _atom_site_fract_x
  _atom_site_fract_y
  _atom_site_fract_z
  _atom_site_occupancy
  Co  Co1       1.0  0.49134  0.75759  0.74935  1.0000
  Co  Co2       1.0  0.50866  0.24241  0.25065  1.0000
  Co  Co3       1.0  0.50000  0.00000  0.00000  1.0000
  Co  Co4       1.0  0.99134  0.24241  0.75065  1.0000
  Co  Co5       1.0  0.00866  0.75759  0.24935  1.0000
  Co  Co6       1.0  0.00000  0.00000  0.50000  1.0000
  S   S1        1.0  0.61295  0.69590  0.19377  1.0000
  S   S2        1.0  0.61062  0.18793  0.69710  1.0000
  S   S3        1.0  0.59994  0.66964  0.94279  1.0000
  S   S4        1.0  0.61429  0.15823  0.44401  1.0000
  S   S5        1.0  0.88571  0.15823  0.94401  1.0000
  S   S6        1.0  0.88938  0.18793  0.19710  1.0000
  S   S7        1.0  0.90006  0.66964  0.44279  1.0000
  S   S8        1.0  0.88705  0.69590  0.69377  1.0000
  S   S9        1.0  0.11062  0.81207  0.80290  1.0000
  S   S10       1.0  0.11429  0.84177  0.05599  1.0000
  S   S11       1.0  0.09994  0.33036  0.55721  1.0000
  S   S12       1.0  0.11295  0.30410  0.30623  1.0000
  S   S13       1.0  0.40006  0.33036  0.05721  1.0000
  S   S14       1.0  0.38705  0.30410  0.80623  1.0000
  S   S15       1.0  0.38938  0.81207  0.30290  1.0000
  S   S16       1.0  0.38571  0.84177  0.55599  1.0000
