data_image0
_chemical_formula_structural       Cu3Ag4
_chemical_formula_sum              "Cu3 Ag4"
_cell_length_a       7.23394
_cell_length_b       7.23394
_cell_length_c       6.81518
_cell_angle_alpha    56.0109
_cell_angle_beta     56.0109
_cell_angle_gamma    22.1801

_space_group_name_H-M_alt    "P 1"
_space_group_IT_number       1

loop_
  _space_group_symop_operation_xyz
  'x, y, z'

loop_
  _atom_site_type_symbol
  _atom_site_label
  _atom_site_symmetry_multiplicity
  _atom_site_fract_x
  _atom_site_fract_y
  _atom_site_fract_z
  _atom_site_occupancy
  Cu  Cu1       1.0  0.00000  0.00000  0.00000  1.0000
  Cu  Cu2       1.0  0.21856  0.21856  0.69506  1.0000
  Cu  Cu3       1.0  0.78144  0.78144  0.30494  1.0000
  Ag  Ag1       1.0  0.08429  0.08429  0.54279  1.0000
  Ag  Ag2       1.0  0.91571  0.91571  0.45721  1.0000
  Ag  Ag3       1.0  0.63778  0.63778  0.10706  1.0000
  Ag  Ag4       1.0  0.36222  0.36222  0.89294  1.0000
