data_image0
_chemical_formula_structural       Ag9Cu13
_chemical_formula_sum              "Ag9 Cu13"
_cell_length_a       8.53517
_cell_length_b       8.53517
_cell_length_c       5.19027
_cell_angle_alpha    90
_cell_angle_beta     90
_cell_angle_gamma    120

_space_group_name_H-M_alt    "P 1"
_space_group_IT_number       1

loop_
  _space_group_symop_operation_xyz
  'x, y, z'

loop_
  _atom_site_type_symbol
  _atom_site_label
  _atom_site_symmetry_multiplicity
  _atom_site_fract_x
  _atom_site_fract_y
  _atom_site_fract_z
  _atom_site_occupancy
  Ag  Ag1       1.0  0.00000  0.00000  0.50000  1.0000
  Ag  Ag2       1.0  0.33333  0.66667  0.73994  1.0000
  Ag  Ag3       1.0  0.66667  0.33333  0.26006  1.0000
  Ag  Ag4       1.0  0.19357  0.80643  0.27208  1.0000
  Ag  Ag5       1.0  0.19357  0.38714  0.27208  1.0000
  Ag  Ag6       1.0  0.61286  0.80643  0.27208  1.0000
  Ag  Ag7       1.0  0.38714  0.19357  0.72792  1.0000
  Ag  Ag8       1.0  0.80643  0.61286  0.72792  1.0000
  Ag  Ag9       1.0  0.80643  0.19357  0.72792  1.0000
  Cu  Cu1       1.0  0.00000  0.00000  0.00000  1.0000
  Cu  Cu2       1.0  0.50000  0.00000  0.00000  1.0000
  Cu  Cu3       1.0  1.00000  0.50000  0.00000  1.0000
  Cu  Cu4       1.0  0.50000  0.50000  0.00000  1.0000
  Cu  Cu5       1.0  0.50000  0.00000  0.50000  1.0000
  Cu  Cu6       1.0  1.00000  0.50000  0.50000  1.0000
  Cu  Cu7       1.0  0.50000  0.50000  0.50000  1.0000
  Cu  Cu8       1.0  0.15800  0.84200  0.78228  1.0000
  Cu  Cu9       1.0  0.15800  0.31599  0.78228  1.0000
  Cu  Cu10      1.0  0.68401  0.84200  0.78228  1.0000
  Cu  Cu11      1.0  0.31599  0.15800  0.21772  1.0000
  Cu  Cu12      1.0  0.84200  0.68401  0.21772  1.0000
  Cu  Cu13      1.0  0.84200  0.15800  0.21772  1.0000
