data_image0
_chemical_formula_structural       Co3Se4
_chemical_formula_sum              "Co3 Se4"
_cell_length_a       6.17878
_cell_length_b       6.17878
_cell_length_c       6.16789
_cell_angle_alpha    61.9259
_cell_angle_beta     61.9259
_cell_angle_gamma    33.6402

_space_group_name_H-M_alt    "P 1"
_space_group_IT_number       1

loop_
  _space_group_symop_operation_xyz
  'x, y, z'

loop_
  _atom_site_type_symbol
  _atom_site_label
  _atom_site_symmetry_multiplicity
  _atom_site_fract_x
  _atom_site_fract_y
  _atom_site_fract_z
  _atom_site_occupancy
  Co  Co1       1.0  0.23878  0.23878  0.78054  1.0000
  Co  Co2       1.0  0.76122  0.76122  0.21946  1.0000
  Co  Co3       1.0  0.50000  0.50000  0.50000  1.0000
  Se  Se1       1.0  0.86615  0.86615  0.47567  1.0000
  Se  Se2       1.0  0.13385  0.13385  0.52433  1.0000
  Se  Se3       1.0  0.37739  0.37739  0.95565  1.0000
  Se  Se4       1.0  0.62261  0.62261  0.04435  1.0000
