data_image0
_chemical_formula_structural       Co6Se10
_chemical_formula_sum              "Co6 Se10"
_cell_length_a       3.43844
_cell_length_b       8.75254
_cell_length_c       11.4968
_cell_angle_alpha    90
_cell_angle_beta     90
_cell_angle_gamma    90

_space_group_name_H-M_alt    "P 1"
_space_group_IT_number       1

loop_
  _space_group_symop_operation_xyz
  'x, y, z'

loop_
  _atom_site_type_symbol
  _atom_site_label
  _atom_site_symmetry_multiplicity
  _atom_site_fract_x
  _atom_site_fract_y
  _atom_site_fract_z
  _atom_site_occupancy
  Co  Co1       1.0  0.50000  0.32345  0.95010  1.0000
  Co  Co2       1.0  0.50000  0.82345  0.54990  1.0000
  Co  Co3       1.0  0.00000  0.50000  0.50000  1.0000
  Co  Co4       1.0  0.00000  0.00000  0.00000  1.0000
  Co  Co5       1.0  0.50000  0.67655  0.04990  1.0000
  Co  Co6       1.0  0.50000  0.17655  0.45010  1.0000
  Se  Se1       1.0  0.50000  0.64092  0.40735  1.0000
  Se  Se2       1.0  0.50000  0.35908  0.59265  1.0000
  Se  Se3       1.0  0.00000  0.19446  0.85368  1.0000
  Se  Se4       1.0  0.50000  0.85908  0.90735  1.0000
  Se  Se5       1.0  0.00000  0.30554  0.35368  1.0000
  Se  Se6       1.0  0.00000  0.80554  0.14632  1.0000
  Se  Se7       1.0  0.00000  0.69446  0.64632  1.0000
  Se  Se8       1.0  0.00000  0.50000  0.00000  1.0000
  Se  Se9       1.0  0.00000  0.00000  0.50000  1.0000
  Se  Se10      1.0  0.50000  0.14092  0.09265  1.0000
