data_image0
_chemical_formula_structural       Cu8Ag16
_chemical_formula_sum              "Cu8 Ag16"
_cell_length_a       4.58833
_cell_length_b       7.71681
_cell_length_c       11.0303
_cell_angle_alpha    90
_cell_angle_beta     90
_cell_angle_gamma    90

_space_group_name_H-M_alt    "P 1"
_space_group_IT_number       1

loop_
  _space_group_symop_operation_xyz
  'x, y, z'

loop_
  _atom_site_type_symbol
  _atom_site_label
  _atom_site_symmetry_multiplicity
  _atom_site_fract_x
  _atom_site_fract_y
  _atom_site_fract_z
  _atom_site_occupancy
  Cu  Cu1       1.0  0.50449  0.81236  0.12141  1.0000
  Cu  Cu2       1.0  0.99551  0.68764  0.62141  1.0000
  Cu  Cu3       1.0  0.99551  0.31236  0.87859  1.0000
  Cu  Cu4       1.0  0.50449  0.18764  0.37859  1.0000
  Cu  Cu5       1.0  0.49551  0.18764  0.87859  1.0000
  Cu  Cu6       1.0  0.00449  0.31236  0.37859  1.0000
  Cu  Cu7       1.0  0.00449  0.68764  0.12141  1.0000
  Cu  Cu8       1.0  0.49551  0.81236  0.62141  1.0000
  Ag  Ag1       1.0  0.50837  0.50000  0.25000  1.0000
  Ag  Ag2       1.0  0.99163  0.00000  0.75000  1.0000
  Ag  Ag3       1.0  0.49163  0.50000  0.75000  1.0000
  Ag  Ag4       1.0  0.00837  0.00000  0.25000  1.0000
  Ag  Ag5       1.0  0.50609  0.85032  0.37189  1.0000
  Ag  Ag6       1.0  0.99391  0.64968  0.87189  1.0000
  Ag  Ag7       1.0  0.99391  0.35032  0.62811  1.0000
  Ag  Ag8       1.0  0.50609  0.14968  0.12811  1.0000
  Ag  Ag9       1.0  0.49391  0.14968  0.62811  1.0000
  Ag  Ag10      1.0  0.00609  0.35032  0.12811  1.0000
  Ag  Ag11      1.0  0.00609  0.64968  0.37189  1.0000
  Ag  Ag12      1.0  0.49391  0.85032  0.87189  1.0000
  Ag  Ag13      1.0  0.50000  0.50000  0.00000  1.0000
  Ag  Ag14      1.0  0.00000  0.00000  0.50000  1.0000
  Ag  Ag15      1.0  0.00000  0.00000  0.00000  1.0000
  Ag  Ag16      1.0  0.50000  0.50000  0.50000  1.0000
