data_image0
_chemical_formula_structural       Se10Co6
_chemical_formula_sum              "Se10 Co6"
_cell_length_a       7.50677
_cell_length_b       7.50677
_cell_length_c       7.50677
_cell_angle_alpha    127.55
_cell_angle_beta     127.55
_cell_angle_gamma    77.3548

_space_group_name_H-M_alt    "P 1"
_space_group_IT_number       1

loop_
  _space_group_symop_operation_xyz
  'x, y, z'

loop_
  _atom_site_type_symbol
  _atom_site_label
  _atom_site_symmetry_multiplicity
  _atom_site_fract_x
  _atom_site_fract_y
  _atom_site_fract_z
  _atom_site_occupancy
  Se  Se1       1.0  0.53506  0.68632  0.50000  1.0000
  Se  Se2       1.0  0.46494  0.31368  0.50000  1.0000
  Se  Se3       1.0  0.50000  0.50000  0.00000  1.0000
  Se  Se4       1.0  0.00000  0.00000  0.00000  1.0000
  Se  Se5       1.0  0.18632  0.03506  0.50000  1.0000
  Se  Se6       1.0  0.03506  0.53506  0.84875  1.0000
  Se  Se7       1.0  0.68632  0.18632  0.15125  1.0000
  Se  Se8       1.0  0.31368  0.81368  0.84875  1.0000
  Se  Se9       1.0  0.96494  0.46494  0.15125  1.0000
  Se  Se10      1.0  0.81368  0.96494  0.50000  1.0000
  Co  Co1       1.0  0.86614  0.63386  0.50000  1.0000
  Co  Co2       1.0  0.63386  0.13386  0.76773  1.0000
  Co  Co3       1.0  0.36614  0.86614  0.23227  1.0000
  Co  Co4       1.0  0.13386  0.36614  0.50000  1.0000
  Co  Co5       1.0  0.25000  0.25000  0.00000  1.0000
  Co  Co6       1.0  0.75000  0.75000  0.00000  1.0000
