data_image0
_chemical_formula_structural       Cu6Ag4
_chemical_formula_sum              "Cu6 Ag4"
_cell_length_a       5.14258
_cell_length_b       5.14258
_cell_length_c       6.0516
_cell_angle_alpha    90
_cell_angle_beta     90
_cell_angle_gamma    90

_space_group_name_H-M_alt    "P 1"
_space_group_IT_number       1

loop_
  _space_group_symop_operation_xyz
  'x, y, z'

loop_
  _atom_site_type_symbol
  _atom_site_label
  _atom_site_symmetry_multiplicity
  _atom_site_fract_x
  _atom_site_fract_y
  _atom_site_fract_z
  _atom_site_occupancy
  Cu  Cu1       1.0  0.00000  0.00000  0.00000  1.0000
  Cu  Cu2       1.0  0.50000  0.50000  0.00000  1.0000
  Cu  Cu3       1.0  0.17435  0.67435  0.76272  1.0000
  Cu  Cu4       1.0  0.32565  0.17435  0.23728  1.0000
  Cu  Cu5       1.0  0.67435  0.82565  0.23728  1.0000
  Cu  Cu6       1.0  0.82565  0.32565  0.76272  1.0000
  Ag  Ag1       1.0  0.19085  0.69085  0.33036  1.0000
  Ag  Ag2       1.0  0.30915  0.19085  0.66964  1.0000
  Ag  Ag3       1.0  0.69085  0.80915  0.66964  1.0000
  Ag  Ag4       1.0  0.80915  0.30915  0.33036  1.0000
