data_image0
_chemical_formula_structural       Se4Co4
_chemical_formula_sum              "Se4 Co4"
_cell_length_a       4.91051
_cell_length_b       4.91051
_cell_length_c       4.91051
_cell_angle_alpha    90
_cell_angle_beta     90
_cell_angle_gamma    90

_space_group_name_H-M_alt    "P 1"
_space_group_IT_number       1

loop_
  _space_group_symop_operation_xyz
  'x, y, z'

loop_
  _atom_site_type_symbol
  _atom_site_label
  _atom_site_symmetry_multiplicity
  _atom_site_fract_x
  _atom_site_fract_y
  _atom_site_fract_z
  _atom_site_occupancy
  Se  Se1       1.0  0.78155  0.78155  0.78155  1.0000
  Se  Se2       1.0  0.71845  0.21845  0.28155  1.0000
  Se  Se3       1.0  0.28155  0.71845  0.21845  1.0000
  Se  Se4       1.0  0.21845  0.28155  0.71845  1.0000
  Co  Co1       1.0  0.20515  0.20515  0.20515  1.0000
  Co  Co2       1.0  0.29485  0.79485  0.70515  1.0000
  Co  Co3       1.0  0.70515  0.29485  0.79485  1.0000
  Co  Co4       1.0  0.79485  0.70515  0.29485  1.0000
