data_image0
_chemical_formula_structural       Au3Cu3
_chemical_formula_sum              "Au3 Cu3"
_cell_length_a       4.36857
_cell_length_b       4.36857
_cell_length_c       5.43635
_cell_angle_alpha    90
_cell_angle_beta     90
_cell_angle_gamma    120

_space_group_name_H-M_alt    "P 1"
_space_group_IT_number       1

loop_
  _space_group_symop_operation_xyz
  'x, y, z'

loop_
  _atom_site_type_symbol
  _atom_site_label
  _atom_site_symmetry_multiplicity
  _atom_site_fract_x
  _atom_site_fract_y
  _atom_site_fract_z
  _atom_site_occupancy
  Au  Au1       1.0  0.33344  0.33344  0.00000  1.0000
  Au  Au2       1.0  0.00000  0.66656  0.66667  1.0000
  Au  Au3       1.0  0.66656  0.00000  0.33333  1.0000
  Cu  Cu1       1.0  0.33423  0.33423  0.50000  1.0000
  Cu  Cu2       1.0  1.00000  0.66577  0.16667  1.0000
  Cu  Cu3       1.0  0.66577  1.00000  0.83333  1.0000
