data_image0
_chemical_formula_structural       Cu6Au10
_chemical_formula_sum              "Cu6 Au10"
_cell_length_a       4.00235
_cell_length_b       5.64441
_cell_length_c       11.2527
_cell_angle_alpha    90
_cell_angle_beta     90
_cell_angle_gamma    90

_space_group_name_H-M_alt    "P 1"
_space_group_IT_number       1

loop_
  _space_group_symop_operation_xyz
  'x, y, z'

loop_
  _atom_site_type_symbol
  _atom_site_label
  _atom_site_symmetry_multiplicity
  _atom_site_fract_x
  _atom_site_fract_y
  _atom_site_fract_z
  _atom_site_occupancy
  Cu  Cu1       1.0  0.50000  0.28066  0.87286  1.0000
  Cu  Cu2       1.0  0.50000  0.78066  0.62714  1.0000
  Cu  Cu3       1.0  0.00000  0.50000  0.50000  1.0000
  Cu  Cu4       1.0  0.00000  0.00000  0.00000  1.0000
  Cu  Cu5       1.0  0.50000  0.71934  0.12714  1.0000
  Cu  Cu6       1.0  0.50000  0.21934  0.37286  1.0000
  Au  Au1       1.0  0.50000  0.71654  0.38580  1.0000
  Au  Au2       1.0  0.50000  0.28346  0.61420  1.0000
  Au  Au3       1.0  0.00000  0.04341  0.75879  1.0000
  Au  Au4       1.0  0.50000  0.78346  0.88580  1.0000
  Au  Au5       1.0  0.00000  0.45659  0.25879  1.0000
  Au  Au6       1.0  0.00000  0.95659  0.24121  1.0000
  Au  Au7       1.0  0.00000  0.54341  0.74121  1.0000
  Au  Au8       1.0  0.00000  0.50000  0.00000  1.0000
  Au  Au9       1.0  0.00000  0.00000  0.50000  1.0000
  Au  Au10      1.0  0.50000  0.21654  0.11420  1.0000
