data_image0
_chemical_formula_structural       Cu6Au20
_chemical_formula_sum              "Cu6 Au20"
_cell_length_a       10.318
_cell_length_b       10.318
_cell_length_c       4.76511
_cell_angle_alpha    90
_cell_angle_beta     90
_cell_angle_gamma    120

_space_group_name_H-M_alt    "P 1"
_space_group_IT_number       1

loop_
  _space_group_symop_operation_xyz
  'x, y, z'

loop_
  _atom_site_type_symbol
  _atom_site_label
  _atom_site_symmetry_multiplicity
  _atom_site_fract_x
  _atom_site_fract_y
  _atom_site_fract_z
  _atom_site_occupancy
  Cu  Cu1       1.0  0.63955  0.74261  0.25000  1.0000
  Cu  Cu2       1.0  0.25739  0.89694  0.25000  1.0000
  Cu  Cu3       1.0  0.10306  0.36045  0.25000  1.0000
  Cu  Cu4       1.0  0.36045  0.25739  0.75000  1.0000
  Cu  Cu5       1.0  0.74261  0.10306  0.75000  1.0000
  Cu  Cu6       1.0  0.89694  0.63955  0.75000  1.0000
  Au  Au1       1.0  0.86747  0.04753  0.25000  1.0000
  Au  Au2       1.0  0.95247  0.81994  0.25000  1.0000
  Au  Au3       1.0  0.18006  0.13253  0.25000  1.0000
  Au  Au4       1.0  0.13253  0.95247  0.75000  1.0000
  Au  Au5       1.0  0.04753  0.18006  0.75000  1.0000
  Au  Au6       1.0  0.81994  0.86747  0.75000  1.0000
  Au  Au7       1.0  0.56400  0.97242  0.25000  1.0000
  Au  Au8       1.0  0.02758  0.59158  0.25000  1.0000
  Au  Au9       1.0  0.40842  0.43600  0.25000  1.0000
  Au  Au10      1.0  0.43600  0.02758  0.75000  1.0000
  Au  Au11      1.0  0.97242  0.40842  0.75000  1.0000
  Au  Au12      1.0  0.59158  0.56400  0.75000  1.0000
  Au  Au13      1.0  0.79800  0.27805  0.25000  1.0000
  Au  Au14      1.0  0.72195  0.51995  0.25000  1.0000
  Au  Au15      1.0  0.48005  0.20200  0.25000  1.0000
  Au  Au16      1.0  0.20200  0.72195  0.75000  1.0000
  Au  Au17      1.0  0.27805  0.48005  0.75000  1.0000
  Au  Au18      1.0  0.51995  0.79800  0.75000  1.0000
  Au  Au19      1.0  0.66667  0.33333  0.75000  1.0000
  Au  Au20      1.0  0.33333  0.66667  0.25000  1.0000
