data_image0
_chemical_formula_structural       Cu8Au16
_chemical_formula_sum              "Cu8 Au16"
_cell_length_a       4.62357
_cell_length_b       7.75201
_cell_length_c       10.9667
_cell_angle_alpha    90
_cell_angle_beta     90
_cell_angle_gamma    90

_space_group_name_H-M_alt    "P 1"
_space_group_IT_number       1

loop_
  _space_group_symop_operation_xyz
  'x, y, z'

loop_
  _atom_site_type_symbol
  _atom_site_label
  _atom_site_symmetry_multiplicity
  _atom_site_fract_x
  _atom_site_fract_y
  _atom_site_fract_z
  _atom_site_occupancy
  Cu  Cu1       1.0  0.51425  0.81376  0.12108  1.0000
  Cu  Cu2       1.0  0.98575  0.68624  0.62108  1.0000
  Cu  Cu3       1.0  0.98575  0.31376  0.87892  1.0000
  Cu  Cu4       1.0  0.51425  0.18624  0.37892  1.0000
  Cu  Cu5       1.0  0.48575  0.18624  0.87892  1.0000
  Cu  Cu6       1.0  0.01425  0.31376  0.37892  1.0000
  Cu  Cu7       1.0  0.01425  0.68624  0.12108  1.0000
  Cu  Cu8       1.0  0.48575  0.81376  0.62108  1.0000
  Au  Au1       1.0  0.50729  0.50000  0.25000  1.0000
  Au  Au2       1.0  0.99271  0.00000  0.75000  1.0000
  Au  Au3       1.0  0.49271  0.50000  0.75000  1.0000
  Au  Au4       1.0  0.00729  0.00000  0.25000  1.0000
  Au  Au5       1.0  0.50499  0.85138  0.37167  1.0000
  Au  Au6       1.0  0.99501  0.64862  0.87167  1.0000
  Au  Au7       1.0  0.99501  0.35138  0.62833  1.0000
  Au  Au8       1.0  0.50499  0.14862  0.12833  1.0000
  Au  Au9       1.0  0.49501  0.14862  0.62833  1.0000
  Au  Au10      1.0  0.00499  0.35138  0.12833  1.0000
  Au  Au11      1.0  0.00499  0.64862  0.37167  1.0000
  Au  Au12      1.0  0.49501  0.85138  0.87167  1.0000
  Au  Au13      1.0  0.50000  0.50000  0.00000  1.0000
  Au  Au14      1.0  0.00000  0.00000  0.50000  1.0000
  Au  Au15      1.0  0.00000  0.00000  0.00000  1.0000
  Au  Au16      1.0  0.50000  0.50000  0.50000  1.0000
