data_image0
_chemical_formula_structural       Cu8Ag12
_chemical_formula_sum              "Cu8 Ag12"
_cell_length_a       2.796
_cell_length_b       12.2268
_cell_length_c       9.40064
_cell_angle_alpha    90
_cell_angle_beta     90
_cell_angle_gamma    90

_space_group_name_H-M_alt    "P 1"
_space_group_IT_number       1

loop_
  _space_group_symop_operation_xyz
  'x, y, z'

loop_
  _atom_site_type_symbol
  _atom_site_label
  _atom_site_symmetry_multiplicity
  _atom_site_fract_x
  _atom_site_fract_y
  _atom_site_fract_z
  _atom_site_occupancy
  Cu  Cu1       1.0  0.25000  0.95025  0.81801  1.0000
  Cu  Cu2       1.0  0.75000  0.04975  0.18199  1.0000
  Cu  Cu3       1.0  0.75000  0.45025  0.68199  1.0000
  Cu  Cu4       1.0  0.25000  0.54975  0.31801  1.0000
  Cu  Cu5       1.0  0.25000  0.15502  0.38689  1.0000
  Cu  Cu6       1.0  0.75000  0.84498  0.61311  1.0000
  Cu  Cu7       1.0  0.75000  0.65502  0.11311  1.0000
  Cu  Cu8       1.0  0.25000  0.34498  0.88689  1.0000
  Ag  Ag1       1.0  0.25000  0.26372  0.63446  1.0000
  Ag  Ag2       1.0  0.75000  0.73628  0.36554  1.0000
  Ag  Ag3       1.0  0.75000  0.76372  0.86554  1.0000
  Ag  Ag4       1.0  0.25000  0.23628  0.13446  1.0000
  Ag  Ag5       1.0  0.25000  0.93958  0.38894  1.0000
  Ag  Ag6       1.0  0.75000  0.06042  0.61106  1.0000
  Ag  Ag7       1.0  0.75000  0.43958  0.11106  1.0000
  Ag  Ag8       1.0  0.25000  0.56042  0.88894  1.0000
  Ag  Ag9       1.0  0.25000  0.85999  0.10536  1.0000
  Ag  Ag10      1.0  0.75000  0.14001  0.89464  1.0000
  Ag  Ag11      1.0  0.75000  0.35999  0.39464  1.0000
  Ag  Ag12      1.0  0.25000  0.64001  0.60536  1.0000
