data_image0
_chemical_formula_structural       Cu2Ag6
_chemical_formula_sum              "Cu2 Ag6"
_cell_length_a       4.65384
_cell_length_b       4.96449
_cell_length_c       5.73079
_cell_angle_alpha    90
_cell_angle_beta     90
_cell_angle_gamma    90

_space_group_name_H-M_alt    "P 1"
_space_group_IT_number       1

loop_
  _space_group_symop_operation_xyz
  'x, y, z'

loop_
  _atom_site_type_symbol
  _atom_site_label
  _atom_site_symmetry_multiplicity
  _atom_site_fract_x
  _atom_site_fract_y
  _atom_site_fract_z
  _atom_site_occupancy
  Cu  Cu1       1.0  0.50000  0.66743  0.50000  1.0000
  Cu  Cu2       1.0  0.00000  0.33257  0.00000  1.0000
  Ag  Ag1       1.0  0.50000  0.16631  0.74964  1.0000
  Ag  Ag2       1.0  0.50000  0.16631  0.25036  1.0000
  Ag  Ag3       1.0  0.00000  0.83369  0.75036  1.0000
  Ag  Ag4       1.0  0.00000  0.83369  0.24964  1.0000
  Ag  Ag5       1.0  0.00000  0.34550  0.50000  1.0000
  Ag  Ag6       1.0  0.50000  0.65450  0.00000  1.0000
