data_image0
_chemical_formula_structural       Cu6Au16
_chemical_formula_sum              "Cu6 Au16"
_cell_length_a       5.06728
_cell_length_b       5.73503
_cell_length_c       12.996
_cell_angle_alpha    81.138
_cell_angle_beta     90
_cell_angle_gamma    90

_space_group_name_H-M_alt    "P 1"
_space_group_IT_number       1

loop_
  _space_group_symop_operation_xyz
  'x, y, z'

loop_
  _atom_site_type_symbol
  _atom_site_label
  _atom_site_symmetry_multiplicity
  _atom_site_fract_x
  _atom_site_fract_y
  _atom_site_fract_z
  _atom_site_occupancy
  Cu  Cu1       1.0  0.66645  0.92556  0.78994  1.0000
  Cu  Cu2       1.0  0.33355  0.07444  0.21006  1.0000
  Cu  Cu3       1.0  0.50000  0.00000  0.00000  1.0000
  Cu  Cu4       1.0  0.16645  0.07444  0.71006  1.0000
  Cu  Cu5       1.0  0.83355  0.92556  0.28994  1.0000
  Cu  Cu6       1.0  0.00000  0.00000  0.50000  1.0000
  Au  Au1       1.0  0.53996  0.62431  0.19862  1.0000
  Au  Au2       1.0  0.71498  0.23161  0.62395  1.0000
  Au  Au3       1.0  0.72846  0.60915  0.95603  1.0000
  Au  Au4       1.0  0.54294  0.19209  0.39676  1.0000
  Au  Au5       1.0  0.95706  0.19209  0.89676  1.0000
  Au  Au6       1.0  0.78502  0.23161  0.12395  1.0000
  Au  Au7       1.0  0.77154  0.60915  0.45603  1.0000
  Au  Au8       1.0  0.96004  0.62431  0.69862  1.0000
  Au  Au9       1.0  0.21498  0.76839  0.87605  1.0000
  Au  Au10      1.0  0.04294  0.80791  0.10324  1.0000
  Au  Au11      1.0  0.22846  0.39085  0.54397  1.0000
  Au  Au12      1.0  0.03996  0.37569  0.30138  1.0000
  Au  Au13      1.0  0.27154  0.39085  0.04397  1.0000
  Au  Au14      1.0  0.46004  0.37569  0.80138  1.0000
  Au  Au15      1.0  0.28502  0.76839  0.37605  1.0000
  Au  Au16      1.0  0.45706  0.80791  0.60324  1.0000
