data_image0
_chemical_formula_structural       Cu4Ag8
_chemical_formula_sum              "Cu4 Ag8"
_cell_length_a       8.64933
_cell_length_b       8.64933
_cell_length_c       11.3733
_cell_angle_alpha    47.0925
_cell_angle_beta     47.0925
_cell_angle_gamma    19.022

_space_group_name_H-M_alt    "P 1"
_space_group_IT_number       1

loop_
  _space_group_symop_operation_xyz
  'x, y, z'

loop_
  _atom_site_type_symbol
  _atom_site_label
  _atom_site_symmetry_multiplicity
  _atom_site_fract_x
  _atom_site_fract_y
  _atom_site_fract_z
  _atom_site_occupancy
  Cu  Cu1       1.0  0.70818  0.70818  0.87006  1.0000
  Cu  Cu2       1.0  0.29182  0.29182  0.12994  1.0000
  Cu  Cu3       1.0  0.41723  0.41723  0.35735  1.0000
  Cu  Cu4       1.0  0.58277  0.58277  0.64265  1.0000
  Ag  Ag1       1.0  0.02915  0.02915  0.08606  1.0000
  Ag  Ag2       1.0  0.97085  0.97085  0.91394  1.0000
  Ag  Ag3       1.0  0.89523  0.89523  0.57342  1.0000
  Ag  Ag4       1.0  0.10477  0.10477  0.42658  1.0000
  Ag  Ag5       1.0  0.63860  0.63860  0.16722  1.0000
  Ag  Ag6       1.0  0.36140  0.36140  0.83278  1.0000
  Ag  Ag7       1.0  0.20921  0.20921  0.66082  1.0000
  Ag  Ag8       1.0  0.79079  0.79079  0.33918  1.0000
