data_image0
_chemical_formula_structural       CuAu2
_chemical_formula_sum              "Cu1 Au2"
_cell_length_a       5.43396
_cell_length_b       5.43396
_cell_length_c       5.43396
_cell_angle_alpha    146.69
_cell_angle_beta     146.69
_cell_angle_gamma    47.823

_space_group_name_H-M_alt    "P 1"
_space_group_IT_number       1

loop_
  _space_group_symop_operation_xyz
  'x, y, z'

loop_
  _atom_site_type_symbol
  _atom_site_label
  _atom_site_symmetry_multiplicity
  _atom_site_fract_x
  _atom_site_fract_y
  _atom_site_fract_z
  _atom_site_occupancy
  Cu  Cu1       1.0  0.00000  0.00000  0.00000  1.0000
  Au  Au1       1.0  0.34608  0.34608  0.00000  1.0000
  Au  Au2       1.0  0.65392  0.65392  0.00000  1.0000
