data_image0
_chemical_formula_structural       CuAu2
_chemical_formula_sum              "Cu1 Au2"
_cell_length_a       2.8874
_cell_length_b       2.8874
_cell_length_c       6.79791
_cell_angle_alpha    89.629
_cell_angle_beta     89.629
_cell_angle_gamma    59.6944

_space_group_name_H-M_alt    "P 1"
_space_group_IT_number       1

loop_
  _space_group_symop_operation_xyz
  'x, y, z'

loop_
  _atom_site_type_symbol
  _atom_site_label
  _atom_site_symmetry_multiplicity
  _atom_site_fract_x
  _atom_site_fract_y
  _atom_site_fract_z
  _atom_site_occupancy
  Cu  Cu1       1.0  0.66624  0.33376  0.50000  1.0000
  Au  Au1       1.0  0.33396  0.00020  0.81319  1.0000
  Au  Au2       1.0  0.99980  0.66604  0.18681  1.0000
