data_image0
_chemical_formula_structural       CuAg4
_chemical_formula_sum              "Cu1 Ag4"
_cell_length_a       4.99251
_cell_length_b       4.99251
_cell_length_c       4.99251
_cell_angle_alpha    99.4285
_cell_angle_beta     99.4285
_cell_angle_gamma    132.25

_space_group_name_H-M_alt    "P 1"
_space_group_IT_number       1

loop_
  _space_group_symop_operation_xyz
  'x, y, z'

loop_
  _atom_site_type_symbol
  _atom_site_label
  _atom_site_symmetry_multiplicity
  _atom_site_fract_x
  _atom_site_fract_y
  _atom_site_fract_z
  _atom_site_occupancy
  Cu  Cu1       1.0  0.00000  0.00000  0.00000  1.0000
  Ag  Ag1       1.0  0.60117  0.20441  0.80557  1.0000
  Ag  Ag2       1.0  0.39883  0.79559  0.19443  1.0000
  Ag  Ag3       1.0  0.79559  0.60117  0.39676  1.0000
  Ag  Ag4       1.0  0.20441  0.39883  0.60324  1.0000
