data_image0
_chemical_formula_structural       Cu2Au4
_chemical_formula_sum              "Cu2 Au4"
_cell_length_a       5.10093
_cell_length_b       5.10093
_cell_length_c       5.10093
_cell_angle_alpha    103.472
_cell_angle_beta     103.472
_cell_angle_gamma    122.28

_space_group_name_H-M_alt    "P 1"
_space_group_IT_number       1

loop_
  _space_group_symop_operation_xyz
  'x, y, z'

loop_
  _atom_site_type_symbol
  _atom_site_label
  _atom_site_symmetry_multiplicity
  _atom_site_fract_x
  _atom_site_fract_y
  _atom_site_fract_z
  _atom_site_occupancy
  Cu  Cu1       1.0  0.75000  0.75000  0.00000  1.0000
  Cu  Cu2       1.0  0.25000  0.25000  0.00000  1.0000
  Au  Au1       1.0  0.65787  0.15787  0.81573  1.0000
  Au  Au2       1.0  0.15787  0.34213  0.50000  1.0000
  Au  Au3       1.0  0.84213  0.65787  0.50000  1.0000
  Au  Au4       1.0  0.34213  0.84213  0.18427  1.0000
