data_image0
_chemical_formula_structural       Au10Cu6
_chemical_formula_sum              "Au10 Cu6"
_cell_length_a       7.33402
_cell_length_b       7.33402
_cell_length_c       7.33402
_cell_angle_alpha    124.17
_cell_angle_beta     124.17
_cell_angle_gamma    82.9169

_space_group_name_H-M_alt    "P 1"
_space_group_IT_number       1

loop_
  _space_group_symop_operation_xyz
  'x, y, z'

loop_
  _atom_site_type_symbol
  _atom_site_label
  _atom_site_symmetry_multiplicity
  _atom_site_fract_x
  _atom_site_fract_y
  _atom_site_fract_z
  _atom_site_occupancy
  Au  Au1       1.0  0.49852  0.68883  0.50000  1.0000
  Au  Au2       1.0  0.50148  0.31117  0.50000  1.0000
  Au  Au3       1.0  0.50000  0.50000  0.00000  1.0000
  Au  Au4       1.0  0.00000  0.00000  0.00000  1.0000
  Au  Au5       1.0  0.18883  0.99852  0.50000  1.0000
  Au  Au6       1.0  0.99852  0.49852  0.80969  1.0000
  Au  Au7       1.0  0.68883  0.18883  0.19031  1.0000
  Au  Au8       1.0  0.31117  0.81117  0.80969  1.0000
  Au  Au9       1.0  0.00148  0.50148  0.19031  1.0000
  Au  Au10      1.0  0.81117  0.00148  0.50000  1.0000
  Cu  Cu1       1.0  0.86143  0.63857  0.50000  1.0000
  Cu  Cu2       1.0  0.63857  0.13857  0.77713  1.0000
  Cu  Cu3       1.0  0.36143  0.86143  0.22287  1.0000
  Cu  Cu4       1.0  0.13857  0.36143  0.50000  1.0000
  Cu  Cu5       1.0  0.25000  0.25000  0.00000  1.0000
  Cu  Cu6       1.0  0.75000  0.75000  0.00000  1.0000
