data_image0
_chemical_formula_structural       Ag4Cu2
_chemical_formula_sum              "Ag4 Cu2"
_cell_length_a       5.11087
_cell_length_b       5.11087
_cell_length_c       5.11087
_cell_angle_alpha    103.213
_cell_angle_beta     103.213
_cell_angle_gamma    122.878

_space_group_name_H-M_alt    "P 1"
_space_group_IT_number       1

loop_
  _space_group_symop_operation_xyz
  'x, y, z'

loop_
  _atom_site_type_symbol
  _atom_site_label
  _atom_site_symmetry_multiplicity
  _atom_site_fract_x
  _atom_site_fract_y
  _atom_site_fract_z
  _atom_site_occupancy
  Ag  Ag1       1.0  0.34307  0.84307  0.18613  1.0000
  Ag  Ag2       1.0  0.15693  0.34307  0.50000  1.0000
  Ag  Ag3       1.0  0.84307  0.65693  0.50000  1.0000
  Ag  Ag4       1.0  0.65693  0.15693  0.81387  1.0000
  Cu  Cu1       1.0  0.75000  0.75000  0.00000  1.0000
  Cu  Cu2       1.0  0.25000  0.25000  0.00000  1.0000
