data_image0
_chemical_formula_structural       Ag10Cu6
_chemical_formula_sum              "Ag10 Cu6"
_cell_length_a       7.42421
_cell_length_b       7.42421
_cell_length_c       7.42421
_cell_angle_alpha    125.956
_cell_angle_beta     125.956
_cell_angle_gamma    79.9601

_space_group_name_H-M_alt    "P 1"
_space_group_IT_number       1

loop_
  _space_group_symop_operation_xyz
  'x, y, z'

loop_
  _atom_site_type_symbol
  _atom_site_label
  _atom_site_symmetry_multiplicity
  _atom_site_fract_x
  _atom_site_fract_y
  _atom_site_fract_z
  _atom_site_occupancy
  Ag  Ag1       1.0  0.50013  0.68673  0.50000  1.0000
  Ag  Ag2       1.0  0.49987  0.31327  0.50000  1.0000
  Ag  Ag3       1.0  0.50000  0.50000  0.00000  1.0000
  Ag  Ag4       1.0  0.00000  0.00000  0.00000  1.0000
  Ag  Ag5       1.0  0.18673  0.00013  0.50000  1.0000
  Ag  Ag6       1.0  0.00013  0.50013  0.81340  1.0000
  Ag  Ag7       1.0  0.68673  0.18673  0.18660  1.0000
  Ag  Ag8       1.0  0.31327  0.81327  0.81340  1.0000
  Ag  Ag9       1.0  0.99987  0.49987  0.18660  1.0000
  Ag  Ag10      1.0  0.81327  0.99987  0.50000  1.0000
  Cu  Cu1       1.0  0.86578  0.63422  0.50000  1.0000
  Cu  Cu2       1.0  0.63422  0.13422  0.76844  1.0000
  Cu  Cu3       1.0  0.36578  0.86578  0.23156  1.0000
  Cu  Cu4       1.0  0.13422  0.36578  0.50000  1.0000
  Cu  Cu5       1.0  0.25000  0.25000  0.00000  1.0000
  Cu  Cu6       1.0  0.75000  0.75000  0.00000  1.0000
