data_image0
_chemical_formula_structural       Au6Cu2
_chemical_formula_sum              "Au6 Cu2"
_cell_length_a       4.73365
_cell_length_b       4.96992
_cell_length_c       5.69686
_cell_angle_alpha    90
_cell_angle_beta     90
_cell_angle_gamma    90

_space_group_name_H-M_alt    "P 1"
_space_group_IT_number       1

loop_
  _space_group_symop_operation_xyz
  'x, y, z'

loop_
  _atom_site_type_symbol
  _atom_site_label
  _atom_site_symmetry_multiplicity
  _atom_site_fract_x
  _atom_site_fract_y
  _atom_site_fract_z
  _atom_site_occupancy
  Au  Au1       1.0  0.00000  0.33256  0.24854  1.0000
  Au  Au2       1.0  0.00000  0.33256  0.75146  1.0000
  Au  Au3       1.0  0.50000  0.66744  0.25146  1.0000
  Au  Au4       1.0  0.50000  0.66744  0.74854  1.0000
  Au  Au5       1.0  0.00000  0.84362  0.50000  1.0000
  Au  Au6       1.0  0.50000  0.15638  0.00000  1.0000
  Cu  Cu1       1.0  0.00000  0.83280  0.00000  1.0000
  Cu  Cu2       1.0  0.50000  0.16720  0.50000  1.0000
