data_image0
_chemical_formula_structural       Cu10Au6
_chemical_formula_sum              "Cu10 Au6"
_cell_length_a       7.3686
_cell_length_b       7.3686
_cell_length_c       7.3686
_cell_angle_alpha    96.5781
_cell_angle_beta     96.5781
_cell_angle_gamma    140.433

_space_group_name_H-M_alt    "P 1"
_space_group_IT_number       1

loop_
  _space_group_symop_operation_xyz
  'x, y, z'

loop_
  _atom_site_type_symbol
  _atom_site_label
  _atom_site_symmetry_multiplicity
  _atom_site_fract_x
  _atom_site_fract_y
  _atom_site_fract_z
  _atom_site_occupancy
  Cu  Cu1       1.0  0.57024  0.25597  0.82621  1.0000
  Cu  Cu2       1.0  0.42976  0.74403  0.17379  1.0000
  Cu  Cu3       1.0  0.74403  0.57024  0.31426  1.0000
  Cu  Cu4       1.0  0.25597  0.42976  0.68574  1.0000
  Cu  Cu5       1.0  0.92976  0.75597  0.68574  1.0000
  Cu  Cu6       1.0  0.24403  0.92976  0.17379  1.0000
  Cu  Cu7       1.0  0.25000  0.75000  0.50000  1.0000
  Cu  Cu8       1.0  0.75000  0.25000  0.50000  1.0000
  Cu  Cu9       1.0  0.07024  0.24403  0.31426  1.0000
  Cu  Cu10      1.0  0.75597  0.07024  0.82621  1.0000
  Au  Au1       1.0  0.82469  0.32469  0.14937  1.0000
  Au  Au2       1.0  0.67531  0.82469  0.50000  1.0000
  Au  Au3       1.0  0.32469  0.17531  0.50000  1.0000
  Au  Au4       1.0  0.17531  0.67531  0.85063  1.0000
  Au  Au5       1.0  0.75000  0.75000  0.00000  1.0000
  Au  Au6       1.0  0.25000  0.25000  0.00000  1.0000
