data_image0
_chemical_formula_structural       Cu8Ag4
_chemical_formula_sum              "Cu8 Ag4"
_cell_length_a       4.20216
_cell_length_b       5.47952
_cell_length_c       7.36101
_cell_angle_alpha    90
_cell_angle_beta     90
_cell_angle_gamma    90

_space_group_name_H-M_alt    "P 1"
_space_group_IT_number       1

loop_
  _space_group_symop_operation_xyz
  'x, y, z'

loop_
  _atom_site_type_symbol
  _atom_site_label
  _atom_site_symmetry_multiplicity
  _atom_site_fract_x
  _atom_site_fract_y
  _atom_site_fract_z
  _atom_site_occupancy
  Cu  Cu1       1.0  0.00110  0.99994  0.83378  1.0000
  Cu  Cu2       1.0  0.50110  0.00006  0.66622  1.0000
  Cu  Cu3       1.0  0.49890  0.49994  0.66622  1.0000
  Cu  Cu4       1.0  0.99890  0.50006  0.83378  1.0000
  Cu  Cu5       1.0  0.00110  0.49994  0.16622  1.0000
  Cu  Cu6       1.0  0.50110  0.50006  0.33378  1.0000
  Cu  Cu7       1.0  0.49890  0.99994  0.33378  1.0000
  Cu  Cu8       1.0  0.99890  0.00006  0.16622  1.0000
  Ag  Ag1       1.0  0.50000  0.75000  0.99922  1.0000
  Ag  Ag2       1.0  0.00000  0.25000  0.50078  1.0000
  Ag  Ag3       1.0  0.50000  0.25000  0.00078  1.0000
  Ag  Ag4       1.0  0.00000  0.75000  0.49922  1.0000
