data_image0
_chemical_formula_structural       Cu4Au8
_chemical_formula_sum              "Cu4 Au8"
_cell_length_a       9.30578
_cell_length_b       9.30578
_cell_length_c       7.38867
_cell_angle_alpha    90
_cell_angle_beta     90
_cell_angle_gamma    162.226

_space_group_name_H-M_alt    "P 1"
_space_group_IT_number       1

loop_
  _space_group_symop_operation_xyz
  'x, y, z'

loop_
  _atom_site_type_symbol
  _atom_site_label
  _atom_site_symmetry_multiplicity
  _atom_site_fract_x
  _atom_site_fract_y
  _atom_site_fract_z
  _atom_site_occupancy
  Cu  Cu1       1.0  0.20763  0.79237  0.24101  1.0000
  Cu  Cu2       1.0  0.79237  0.20763  0.74101  1.0000
  Cu  Cu3       1.0  0.56075  0.43925  0.69796  1.0000
  Cu  Cu4       1.0  0.43925  0.56075  0.19796  1.0000
  Au  Au1       1.0  0.67216  0.32784  0.94657  1.0000
  Au  Au2       1.0  0.32784  0.67216  0.44657  1.0000
  Au  Au3       1.0  0.41237  0.58763  0.82906  1.0000
  Au  Au4       1.0  0.58763  0.41237  0.32906  1.0000
  Au  Au5       1.0  0.18065  0.81935  0.59627  1.0000
  Au  Au6       1.0  0.81935  0.18065  0.09627  1.0000
  Au  Au7       1.0  0.96479  0.03521  0.50343  1.0000
  Au  Au8       1.0  0.03521  0.96479  0.00343  1.0000
