data_image0
_chemical_formula_structural       Cu10Ag6
_chemical_formula_sum              "Cu10 Ag6"
_cell_length_a       7.37475
_cell_length_b       7.37475
_cell_length_c       7.37475
_cell_angle_alpha    96.3795
_cell_angle_beta     96.3795
_cell_angle_gamma    141.057

_space_group_name_H-M_alt    "P 1"
_space_group_IT_number       1

loop_
  _space_group_symop_operation_xyz
  'x, y, z'

loop_
  _atom_site_type_symbol
  _atom_site_label
  _atom_site_symmetry_multiplicity
  _atom_site_fract_x
  _atom_site_fract_y
  _atom_site_fract_z
  _atom_site_occupancy
  Cu  Cu1       1.0  0.56340  0.24726  0.81066  1.0000
  Cu  Cu2       1.0  0.43660  0.75274  0.18934  1.0000
  Cu  Cu3       1.0  0.75274  0.56340  0.31614  1.0000
  Cu  Cu4       1.0  0.24726  0.43660  0.68386  1.0000
  Cu  Cu5       1.0  0.93660  0.74726  0.68386  1.0000
  Cu  Cu6       1.0  0.25274  0.93660  0.18934  1.0000
  Cu  Cu7       1.0  0.25000  0.75000  0.50000  1.0000
  Cu  Cu8       1.0  0.75000  0.25000  0.50000  1.0000
  Cu  Cu9       1.0  0.06340  0.25274  0.31614  1.0000
  Cu  Cu10      1.0  0.74726  0.06340  0.81066  1.0000
  Ag  Ag1       1.0  0.81634  0.31634  0.13267  1.0000
  Ag  Ag2       1.0  0.68366  0.81634  0.50000  1.0000
  Ag  Ag3       1.0  0.31634  0.18366  0.50000  1.0000
  Ag  Ag4       1.0  0.18366  0.68366  0.86733  1.0000
  Ag  Ag5       1.0  0.75000  0.75000  0.00000  1.0000
  Ag  Ag6       1.0  0.25000  0.25000  0.00000  1.0000
