data_image0
_chemical_formula_structural       Cu9Au8
_chemical_formula_sum              "Cu9 Au8"
_cell_length_a       7.81853
_cell_length_b       7.81853
_cell_length_c       7.81853
_cell_angle_alpha    60
_cell_angle_beta     60
_cell_angle_gamma    60

_space_group_name_H-M_alt    "P 1"
_space_group_IT_number       1

loop_
  _space_group_symop_operation_xyz
  'x, y, z'

loop_
  _atom_site_type_symbol
  _atom_site_label
  _atom_site_symmetry_multiplicity
  _atom_site_fract_x
  _atom_site_fract_y
  _atom_site_fract_z
  _atom_site_occupancy
  Cu  Cu1       1.0  0.50000  0.50000  0.50000  1.0000
  Cu  Cu2       1.0  0.88398  0.34807  0.88398  1.0000
  Cu  Cu3       1.0  0.11602  0.11602  0.65193  1.0000
  Cu  Cu4       1.0  0.65193  0.11602  0.11602  1.0000
  Cu  Cu5       1.0  0.11602  0.11602  0.11602  1.0000
  Cu  Cu6       1.0  0.34807  0.88398  0.88398  1.0000
  Cu  Cu7       1.0  0.88398  0.88398  0.88398  1.0000
  Cu  Cu8       1.0  0.88398  0.88398  0.34807  1.0000
  Cu  Cu9       1.0  0.11602  0.65193  0.11602  1.0000
  Au  Au1       1.0  0.75000  0.75000  0.75000  1.0000
  Au  Au2       1.0  0.25000  0.25000  0.25000  1.0000
  Au  Au3       1.0  0.28069  0.28069  0.71931  1.0000
  Au  Au4       1.0  0.28069  0.71931  0.71931  1.0000
  Au  Au5       1.0  0.71931  0.28069  0.28069  1.0000
  Au  Au6       1.0  0.28069  0.71931  0.28069  1.0000
  Au  Au7       1.0  0.71931  0.28069  0.71931  1.0000
  Au  Au8       1.0  0.71931  0.71931  0.28069  1.0000
