data_image0
_chemical_formula_structural       Au9Cu13
_chemical_formula_sum              "Au9 Cu13"
_cell_length_a       8.55529
_cell_length_b       8.55529
_cell_length_c       5.17985
_cell_angle_alpha    90
_cell_angle_beta     90
_cell_angle_gamma    120

_space_group_name_H-M_alt    "P 1"
_space_group_IT_number       1

loop_
  _space_group_symop_operation_xyz
  'x, y, z'

loop_
  _atom_site_type_symbol
  _atom_site_label
  _atom_site_symmetry_multiplicity
  _atom_site_fract_x
  _atom_site_fract_y
  _atom_site_fract_z
  _atom_site_occupancy
  Au  Au1       1.0  0.00000  0.00000  0.50000  1.0000
  Au  Au2       1.0  0.33333  0.66667  0.74779  1.0000
  Au  Au3       1.0  0.66667  0.33333  0.25221  1.0000
  Au  Au4       1.0  0.19291  0.80709  0.24920  1.0000
  Au  Au5       1.0  0.19291  0.38581  0.24920  1.0000
  Au  Au6       1.0  0.61419  0.80709  0.24920  1.0000
  Au  Au7       1.0  0.38581  0.19291  0.75080  1.0000
  Au  Au8       1.0  0.80709  0.61419  0.75080  1.0000
  Au  Au9       1.0  0.80709  0.19291  0.75080  1.0000
  Cu  Cu1       1.0  0.00000  0.00000  0.00000  1.0000
  Cu  Cu2       1.0  0.50000  0.00000  0.00000  1.0000
  Cu  Cu3       1.0  0.00000  0.50000  0.00000  1.0000
  Cu  Cu4       1.0  0.50000  0.50000  0.00000  1.0000
  Cu  Cu5       1.0  0.50000  0.00000  0.50000  1.0000
  Cu  Cu6       1.0  0.00000  0.50000  0.50000  1.0000
  Cu  Cu7       1.0  0.50000  0.50000  0.50000  1.0000
  Cu  Cu8       1.0  0.15905  0.84095  0.75310  1.0000
  Cu  Cu9       1.0  0.15905  0.31811  0.75310  1.0000
  Cu  Cu10      1.0  0.68189  0.84095  0.75310  1.0000
  Cu  Cu11      1.0  0.31811  0.15905  0.24690  1.0000
  Cu  Cu12      1.0  0.84095  0.68189  0.24690  1.0000
  Cu  Cu13      1.0  0.84095  0.15905  0.24690  1.0000
