data_image0
_chemical_formula_structural       Cu6Ag20
_chemical_formula_sum              "Cu6 Ag20"
_cell_length_a       10.3348
_cell_length_b       10.3348
_cell_length_c       4.70952
_cell_angle_alpha    90
_cell_angle_beta     90
_cell_angle_gamma    120

_space_group_name_H-M_alt    "P 1"
_space_group_IT_number       1

loop_
  _space_group_symop_operation_xyz
  'x, y, z'

loop_
  _atom_site_type_symbol
  _atom_site_label
  _atom_site_symmetry_multiplicity
  _atom_site_fract_x
  _atom_site_fract_y
  _atom_site_fract_z
  _atom_site_occupancy
  Cu  Cu1       1.0  0.64028  0.74213  0.25000  1.0000
  Cu  Cu2       1.0  0.25787  0.89816  0.25000  1.0000
  Cu  Cu3       1.0  0.10184  0.35972  0.25000  1.0000
  Cu  Cu4       1.0  0.35972  0.25787  0.75000  1.0000
  Cu  Cu5       1.0  0.74213  0.10184  0.75000  1.0000
  Cu  Cu6       1.0  0.89816  0.64028  0.75000  1.0000
  Ag  Ag1       1.0  0.86583  0.04652  0.25000  1.0000
  Ag  Ag2       1.0  0.95348  0.81931  0.25000  1.0000
  Ag  Ag3       1.0  0.18069  0.13417  0.25000  1.0000
  Ag  Ag4       1.0  0.13417  0.95348  0.75000  1.0000
  Ag  Ag5       1.0  0.04652  0.18069  0.75000  1.0000
  Ag  Ag6       1.0  0.81931  0.86583  0.75000  1.0000
  Ag  Ag7       1.0  0.56342  0.97289  0.25000  1.0000
  Ag  Ag8       1.0  0.02711  0.59053  0.25000  1.0000
  Ag  Ag9       1.0  0.40947  0.43658  0.25000  1.0000
  Ag  Ag10      1.0  0.43658  0.02711  0.75000  1.0000
  Ag  Ag11      1.0  0.97289  0.40947  0.75000  1.0000
  Ag  Ag12      1.0  0.59053  0.56342  0.75000  1.0000
  Ag  Ag13      1.0  0.79719  0.27737  0.25000  1.0000
  Ag  Ag14      1.0  0.72263  0.51982  0.25000  1.0000
  Ag  Ag15      1.0  0.48018  0.20281  0.25000  1.0000
  Ag  Ag16      1.0  0.20281  0.72263  0.75000  1.0000
  Ag  Ag17      1.0  0.27737  0.48018  0.75000  1.0000
  Ag  Ag18      1.0  0.51982  0.79719  0.75000  1.0000
  Ag  Ag19      1.0  0.66667  0.33333  0.75000  1.0000
  Ag  Ag20      1.0  0.33333  0.66667  0.25000  1.0000
