data_image0
_chemical_formula_structural       Cu2Cl4
_chemical_formula_sum              "Cu2 Cl4"
_cell_length_a       7.46194
_cell_length_b       7.46194
_cell_length_c       3.3152
_cell_angle_alpha    90
_cell_angle_beta     90
_cell_angle_gamma    120.804

_space_group_name_H-M_alt    "P 1"
_space_group_IT_number       1

loop_
  _space_group_symop_operation_xyz
  'x, y, z'

loop_
  _atom_site_type_symbol
  _atom_site_label
  _atom_site_symmetry_multiplicity
  _atom_site_fract_x
  _atom_site_fract_y
  _atom_site_fract_z
  _atom_site_occupancy
  Cu  Cu1       1.0  0.24927  0.24927  0.75000  1.0000
  Cu  Cu2       1.0  0.75073  0.75073  0.25000  1.0000
  Cl  Cl1       1.0  0.63119  0.87008  0.75000  1.0000
  Cl  Cl2       1.0  0.87008  0.63119  0.75000  1.0000
  Cl  Cl3       1.0  0.12992  0.36881  0.25000  1.0000
  Cl  Cl4       1.0  0.36881  0.12992  0.25000  1.0000
