data_image0
_chemical_formula_structural       CuBr2
_chemical_formula_sum              "Cu1 Br2"
_cell_length_a       4.31517
_cell_length_b       4.31517
_cell_length_c       6.54658
_cell_angle_alpha    101.097
_cell_angle_beta     101.097
_cell_angle_gamma    47.7911

_space_group_name_H-M_alt    "P 1"
_space_group_IT_number       1

loop_
  _space_group_symop_operation_xyz
  'x, y, z'

loop_
  _atom_site_type_symbol
  _atom_site_label
  _atom_site_symmetry_multiplicity
  _atom_site_fract_x
  _atom_site_fract_y
  _atom_site_fract_z
  _atom_site_occupancy
  Cu  Cu1       1.0  0.66671  0.33329  0.50000  1.0000
  Br  Br1       1.0  0.30131  0.96803  0.73483  1.0000
  Br  Br2       1.0  0.03197  0.69869  0.26517  1.0000
