data_image0
_chemical_formula_structural       Cl9Cu13
_chemical_formula_sum              "Cl9 Cu13"
_cell_length_a       8.80015
_cell_length_b       8.80015
_cell_length_c       5.89293
_cell_angle_alpha    90
_cell_angle_beta     90
_cell_angle_gamma    120

_space_group_name_H-M_alt    "P 1"
_space_group_IT_number       1

loop_
  _space_group_symop_operation_xyz
  'x, y, z'

loop_
  _atom_site_type_symbol
  _atom_site_label
  _atom_site_symmetry_multiplicity
  _atom_site_fract_x
  _atom_site_fract_y
  _atom_site_fract_z
  _atom_site_occupancy
  Cl  Cl1       1.0  0.00000  0.00000  0.50000  1.0000
  Cl  Cl2       1.0  0.33333  0.66667  0.96839  1.0000
  Cl  Cl3       1.0  0.66667  0.33333  0.03161  1.0000
  Cl  Cl4       1.0  0.20961  0.79039  0.46881  1.0000
  Cl  Cl5       1.0  0.20961  0.41921  0.46881  1.0000
  Cl  Cl6       1.0  0.58079  0.79039  0.46881  1.0000
  Cl  Cl7       1.0  0.41921  0.20961  0.53119  1.0000
  Cl  Cl8       1.0  0.79039  0.58079  0.53119  1.0000
  Cl  Cl9       1.0  0.79039  0.20961  0.53119  1.0000
  Cu  Cu1       1.0  0.00000  0.00000  0.00000  1.0000
  Cu  Cu2       1.0  0.50000  0.00000  0.00000  1.0000
  Cu  Cu3       1.0  0.00000  0.50000  0.00000  1.0000
  Cu  Cu4       1.0  0.50000  0.50000  0.00000  1.0000
  Cu  Cu5       1.0  0.50000  0.00000  0.50000  1.0000
  Cu  Cu6       1.0  0.00000  0.50000  0.50000  1.0000
  Cu  Cu7       1.0  0.50000  0.50000  0.50000  1.0000
  Cu  Cu8       1.0  0.14689  0.85311  0.12176  1.0000
  Cu  Cu9       1.0  0.14689  0.29378  0.12176  1.0000
  Cu  Cu10      1.0  0.70622  0.85311  0.12176  1.0000
  Cu  Cu11      1.0  0.29378  0.14689  0.87824  1.0000
  Cu  Cu12      1.0  0.85311  0.70622  0.87824  1.0000
  Cu  Cu13      1.0  0.85311  0.14689  0.87824  1.0000
