data_image0
_chemical_formula_structural       Cu4Br8
_chemical_formula_sum              "Cu4 Br8"
_cell_length_a       7.46073
_cell_length_b       7.46073
_cell_length_c       7.46073
_cell_angle_alpha    60
_cell_angle_beta     60
_cell_angle_gamma    60

_space_group_name_H-M_alt    "P 1"
_space_group_IT_number       1

loop_
  _space_group_symop_operation_xyz
  'x, y, z'

loop_
  _atom_site_type_symbol
  _atom_site_label
  _atom_site_symmetry_multiplicity
  _atom_site_fract_x
  _atom_site_fract_y
  _atom_site_fract_z
  _atom_site_occupancy
  Cu  Cu1       1.0  0.62500  0.62500  0.62500  1.0000
  Cu  Cu2       1.0  0.12500  0.62500  0.62500  1.0000
  Cu  Cu3       1.0  0.62500  0.12500  0.62500  1.0000
  Cu  Cu4       1.0  0.62500  0.62500  0.12500  1.0000
  Br  Br1       1.0  0.87042  0.38873  0.87042  1.0000
  Br  Br2       1.0  0.37958  0.37958  0.86127  1.0000
  Br  Br3       1.0  0.86127  0.37958  0.37958  1.0000
  Br  Br4       1.0  0.37958  0.37958  0.37958  1.0000
  Br  Br5       1.0  0.38873  0.87042  0.87042  1.0000
  Br  Br6       1.0  0.87042  0.87042  0.87042  1.0000
  Br  Br7       1.0  0.87042  0.87042  0.38873  1.0000
  Br  Br8       1.0  0.37958  0.86127  0.37958  1.0000
