data_image0
_chemical_formula_structural       F12Cu8
_chemical_formula_sum              "F12 Cu8"
_cell_length_a       5.48451
_cell_length_b       5.85059
_cell_length_c       7.90844
_cell_angle_alpha    90
_cell_angle_beta     90
_cell_angle_gamma    90

_space_group_name_H-M_alt    "P 1"
_space_group_IT_number       1

loop_
  _space_group_symop_operation_xyz
  'x, y, z'

loop_
  _atom_site_type_symbol
  _atom_site_label
  _atom_site_symmetry_multiplicity
  _atom_site_fract_x
  _atom_site_fract_y
  _atom_site_fract_z
  _atom_site_occupancy
  F   F1        1.0  0.25000  0.93991  0.44602  1.0000
  F   F2        1.0  0.75000  0.06009  0.55398  1.0000
  F   F3        1.0  0.50921  0.39410  0.34489  1.0000
  F   F4        1.0  0.00921  0.60590  0.65511  1.0000
  F   F5        1.0  0.49079  0.10590  0.84489  1.0000
  F   F6        1.0  0.00921  0.10590  0.84489  1.0000
  F   F7        1.0  0.49079  0.60590  0.65511  1.0000
  F   F8        1.0  0.99079  0.39410  0.34489  1.0000
  F   F9        1.0  0.50921  0.89410  0.15511  1.0000
  F   F10       1.0  0.25000  0.43991  0.05398  1.0000
  F   F11       1.0  0.99079  0.89410  0.15511  1.0000
  F   F12       1.0  0.75000  0.56009  0.94602  1.0000
  Cu  Cu1       1.0  0.25000  0.61326  0.39916  1.0000
  Cu  Cu2       1.0  0.25000  0.03202  0.67222  1.0000
  Cu  Cu3       1.0  0.75000  0.96798  0.32778  1.0000
  Cu  Cu4       1.0  0.75000  0.46798  0.17222  1.0000
  Cu  Cu5       1.0  0.25000  0.53202  0.82778  1.0000
  Cu  Cu6       1.0  0.25000  0.11326  0.10084  1.0000
  Cu  Cu7       1.0  0.75000  0.38674  0.60084  1.0000
  Cu  Cu8       1.0  0.75000  0.88674  0.89916  1.0000
