data_image0
_chemical_formula_structural       Cu10Br6
_chemical_formula_sum              "Cu10 Br6"
_cell_length_a       7.62646
_cell_length_b       7.62646
_cell_length_c       7.62646
_cell_angle_alpha    103.116
_cell_angle_beta     103.116
_cell_angle_gamma    123.104

_space_group_name_H-M_alt    "P 1"
_space_group_IT_number       1

loop_
  _space_group_symop_operation_xyz
  'x, y, z'

loop_
  _atom_site_type_symbol
  _atom_site_label
  _atom_site_symmetry_multiplicity
  _atom_site_fract_x
  _atom_site_fract_y
  _atom_site_fract_z
  _atom_site_occupancy
  Cu  Cu1       1.0  0.49984  0.18642  0.68626  1.0000
  Cu  Cu2       1.0  0.50016  0.81358  0.31374  1.0000
  Cu  Cu3       1.0  0.81358  0.49984  0.31343  1.0000
  Cu  Cu4       1.0  0.18642  0.50016  0.68657  1.0000
  Cu  Cu5       1.0  0.00016  0.68642  0.68657  1.0000
  Cu  Cu6       1.0  0.31358  0.00016  0.31374  1.0000
  Cu  Cu7       1.0  0.25000  0.75000  0.50000  1.0000
  Cu  Cu8       1.0  0.75000  0.25000  0.50000  1.0000
  Cu  Cu9       1.0  0.99984  0.31358  0.31343  1.0000
  Cu  Cu10      1.0  0.68642  0.99984  0.68626  1.0000
  Br  Br1       1.0  0.74991  0.24991  0.99983  1.0000
  Br  Br2       1.0  0.75009  0.74991  0.50000  1.0000
  Br  Br3       1.0  0.24991  0.25009  0.50000  1.0000
  Br  Br4       1.0  0.25009  0.75009  0.00017  1.0000
  Br  Br5       1.0  0.75000  0.75000  0.00000  1.0000
  Br  Br6       1.0  0.25000  0.25000  0.00000  1.0000
