data_image0
_chemical_formula_structural       Cl6Cu2
_chemical_formula_sum              "Cl6 Cu2"
_cell_length_a       5.28376
_cell_length_b       7.15554
_cell_length_c       4.71979
_cell_angle_alpha    90
_cell_angle_beta     90
_cell_angle_gamma    90

_space_group_name_H-M_alt    "P 1"
_space_group_IT_number       1

loop_
  _space_group_symop_operation_xyz
  'x, y, z'

loop_
  _atom_site_type_symbol
  _atom_site_label
  _atom_site_symmetry_multiplicity
  _atom_site_fract_x
  _atom_site_fract_y
  _atom_site_fract_z
  _atom_site_occupancy
  Cl  Cl1       1.0  0.00000  0.36365  0.25640  1.0000
  Cl  Cl2       1.0  0.00000  0.36365  0.74360  1.0000
  Cl  Cl3       1.0  0.50000  0.63635  0.24360  1.0000
  Cl  Cl4       1.0  0.50000  0.63635  0.75640  1.0000
  Cl  Cl5       1.0  0.00000  0.92683  0.50000  1.0000
  Cl  Cl6       1.0  0.50000  0.07317  0.00000  1.0000
  Cu  Cu1       1.0  0.00000  0.07842  0.00000  1.0000
  Cu  Cu2       1.0  0.50000  0.92158  0.50000  1.0000
