data_image0
_chemical_formula_structural       Cu8Br16
_chemical_formula_sum              "Cu8 Br16"
_cell_length_a       3.5019
_cell_length_b       7.78321
_cell_length_c       27.5303
_cell_angle_alpha    90
_cell_angle_beta     90
_cell_angle_gamma    90

_space_group_name_H-M_alt    "P 1"
_space_group_IT_number       1

loop_
  _space_group_symop_operation_xyz
  'x, y, z'

loop_
  _atom_site_type_symbol
  _atom_site_label
  _atom_site_symmetry_multiplicity
  _atom_site_fract_x
  _atom_site_fract_y
  _atom_site_fract_z
  _atom_site_occupancy
  Cu  Cu1       1.0  0.25000  0.93065  0.81085  1.0000
  Cu  Cu2       1.0  0.75000  0.06935  0.18915  1.0000
  Cu  Cu3       1.0  0.75000  0.43065  0.68915  1.0000
  Cu  Cu4       1.0  0.25000  0.56935  0.31085  1.0000
  Cu  Cu5       1.0  0.25000  0.91963  0.56565  1.0000
  Cu  Cu6       1.0  0.75000  0.08037  0.43435  1.0000
  Cu  Cu7       1.0  0.75000  0.41963  0.93435  1.0000
  Cu  Cu8       1.0  0.25000  0.58037  0.06565  1.0000
  Br  Br1       1.0  0.25000  0.55366  0.88680  1.0000
  Br  Br2       1.0  0.75000  0.44634  0.11320  1.0000
  Br  Br3       1.0  0.75000  0.05366  0.61320  1.0000
  Br  Br4       1.0  0.25000  0.94634  0.38680  1.0000
  Br  Br5       1.0  0.25000  0.19088  0.23912  1.0000
  Br  Br6       1.0  0.75000  0.80912  0.76088  1.0000
  Br  Br7       1.0  0.75000  0.69088  0.26088  1.0000
  Br  Br8       1.0  0.25000  0.30912  0.73912  1.0000
  Br  Br9       1.0  0.25000  0.27733  0.98057  1.0000
  Br  Br10      1.0  0.75000  0.72267  0.01943  1.0000
  Br  Br11      1.0  0.75000  0.77733  0.51943  1.0000
  Br  Br12      1.0  0.25000  0.22267  0.48057  1.0000
  Br  Br13      1.0  0.25000  0.94886  0.13903  1.0000
  Br  Br14      1.0  0.75000  0.05114  0.86097  1.0000
  Br  Br15      1.0  0.75000  0.44886  0.36097  1.0000
  Br  Br16      1.0  0.25000  0.55114  0.63903  1.0000
