data_image0
_chemical_formula_structural       Hg6Cu2
_chemical_formula_sum              "Hg6 Cu2"
_cell_length_a       5.40345
_cell_length_b       4.96843
_cell_length_c       6.31707
_cell_angle_alpha    90
_cell_angle_beta     90
_cell_angle_gamma    90

_space_group_name_H-M_alt    "P 1"
_space_group_IT_number       1

loop_
  _space_group_symop_operation_xyz
  'x, y, z'

loop_
  _atom_site_type_symbol
  _atom_site_label
  _atom_site_symmetry_multiplicity
  _atom_site_fract_x
  _atom_site_fract_y
  _atom_site_fract_z
  _atom_site_occupancy
  Hg  Hg1       1.0  0.00000  0.35678  0.23498  1.0000
  Hg  Hg2       1.0  0.00000  0.35678  0.76502  1.0000
  Hg  Hg3       1.0  0.50000  0.64322  0.26502  1.0000
  Hg  Hg4       1.0  0.50000  0.64322  0.73498  1.0000
  Hg  Hg5       1.0  0.00000  0.87380  0.50000  1.0000
  Hg  Hg6       1.0  0.50000  0.12620  0.00000  1.0000
  Cu  Cu1       1.0  0.00000  0.85920  0.00000  1.0000
  Cu  Cu2       1.0  0.50000  0.14080  0.50000  1.0000
