data_image0
_chemical_formula_structural       Cu3Br4
_chemical_formula_sum              "Cu3 Br4"
_cell_length_a       6.75124
_cell_length_b       6.75124
_cell_length_c       6.84483
_cell_angle_alpha    78.6194
_cell_angle_beta     78.6194
_cell_angle_gamma    33.4512

_space_group_name_H-M_alt    "P 1"
_space_group_IT_number       1

loop_
  _space_group_symop_operation_xyz
  'x, y, z'

loop_
  _atom_site_type_symbol
  _atom_site_label
  _atom_site_symmetry_multiplicity
  _atom_site_fract_x
  _atom_site_fract_y
  _atom_site_fract_z
  _atom_site_occupancy
  Cu  Cu1       1.0  0.15610  0.15610  0.91022  1.0000
  Cu  Cu2       1.0  0.84390  0.84390  0.08978  1.0000
  Cu  Cu3       1.0  0.50000  0.50000  0.50000  1.0000
  Br  Br1       1.0  0.88836  0.88836  0.40473  1.0000
  Br  Br2       1.0  0.11164  0.11164  0.59527  1.0000
  Br  Br3       1.0  0.36742  0.36742  0.87613  1.0000
  Br  Br4       1.0  0.63258  0.63258  0.12387  1.0000
