data_image0
_chemical_formula_structural       Br8Cu4
_chemical_formula_sum              "Br8 Cu4"
_cell_length_a       6.44468
_cell_length_b       9.33953
_cell_length_c       7.47599
_cell_angle_alpha    55.4231
_cell_angle_beta     90
_cell_angle_gamma    90

_space_group_name_H-M_alt    "P 1"
_space_group_IT_number       1

loop_
  _space_group_symop_operation_xyz
  'x, y, z'

loop_
  _atom_site_type_symbol
  _atom_site_label
  _atom_site_symmetry_multiplicity
  _atom_site_fract_x
  _atom_site_fract_y
  _atom_site_fract_z
  _atom_site_occupancy
  Br  Br1       1.0  0.24835  0.14459  0.25758  1.0000
  Br  Br2       1.0  0.74835  0.85541  0.24242  1.0000
  Br  Br3       1.0  0.75165  0.85541  0.74242  1.0000
  Br  Br4       1.0  0.25165  0.14459  0.75758  1.0000
  Br  Br5       1.0  0.81967  0.38314  0.80174  1.0000
  Br  Br6       1.0  0.31967  0.61686  0.69826  1.0000
  Br  Br7       1.0  0.18033  0.61686  0.19826  1.0000
  Br  Br8       1.0  0.68033  0.38314  0.30174  1.0000
  Cu  Cu1       1.0  0.18638  0.32958  0.87668  1.0000
  Cu  Cu2       1.0  0.68638  0.67042  0.62332  1.0000
  Cu  Cu3       1.0  0.81362  0.67042  0.12332  1.0000
  Cu  Cu4       1.0  0.31362  0.32958  0.37668  1.0000
