data_image0
_chemical_formula_structural       Cu4Br6
_chemical_formula_sum              "Cu4 Br6"
_cell_length_a       6.89981
_cell_length_b       6.89981
_cell_length_c       6.89981
_cell_angle_alpha    109.673
_cell_angle_beta     123.56
_cell_angle_gamma    96.3467

_space_group_name_H-M_alt    "P 1"
_space_group_IT_number       1

loop_
  _space_group_symop_operation_xyz
  'x, y, z'

loop_
  _atom_site_type_symbol
  _atom_site_label
  _atom_site_symmetry_multiplicity
  _atom_site_fract_x
  _atom_site_fract_y
  _atom_site_fract_z
  _atom_site_occupancy
  Cu  Cu1       1.0  0.68626  0.41731  0.26895  1.0000
  Cu  Cu2       1.0  0.31374  0.58269  0.73105  1.0000
  Cu  Cu3       1.0  0.85164  0.08269  0.76895  1.0000
  Cu  Cu4       1.0  0.14836  0.91731  0.23105  1.0000
  Br  Br1       1.0  0.42617  0.83540  0.59077  1.0000
  Br  Br2       1.0  0.57383  0.16460  0.40923  1.0000
  Br  Br3       1.0  0.24463  0.33540  0.90923  1.0000
  Br  Br4       1.0  0.75537  0.66460  0.09077  1.0000
  Br  Br5       1.0  0.00000  0.75000  0.75000  1.0000
  Br  Br6       1.0  0.00000  0.25000  0.25000  1.0000
