data_image0
_chemical_formula_structural       Br10Cu6
_chemical_formula_sum              "Br10 Cu6"
_cell_length_a       9.10608
_cell_length_b       9.10608
_cell_length_c       9.10608
_cell_angle_alpha    133.566
_cell_angle_beta     133.566
_cell_angle_gamma    67.7666

_space_group_name_H-M_alt    "P 1"
_space_group_IT_number       1

loop_
  _space_group_symop_operation_xyz
  'x, y, z'

loop_
  _atom_site_type_symbol
  _atom_site_label
  _atom_site_symmetry_multiplicity
  _atom_site_fract_x
  _atom_site_fract_y
  _atom_site_fract_z
  _atom_site_occupancy
  Br  Br1       1.0  0.53429  0.65974  0.50000  1.0000
  Br  Br2       1.0  0.46571  0.34026  0.50000  1.0000
  Br  Br3       1.0  0.50000  0.50000  0.00000  1.0000
  Br  Br4       1.0  0.00000  0.00000  0.00000  1.0000
  Br  Br5       1.0  0.15974  0.03429  0.50000  1.0000
  Br  Br6       1.0  0.03429  0.53429  0.87455  1.0000
  Br  Br7       1.0  0.65974  0.15974  0.12545  1.0000
  Br  Br8       1.0  0.34026  0.84026  0.87455  1.0000
  Br  Br9       1.0  0.96571  0.46571  0.12545  1.0000
  Br  Br10      1.0  0.84026  0.96571  0.50000  1.0000
  Cu  Cu1       1.0  0.70610  0.79390  0.50000  1.0000
  Cu  Cu2       1.0  0.79390  0.29390  0.08781  1.0000
  Cu  Cu3       1.0  0.20610  0.70610  0.91219  1.0000
  Cu  Cu4       1.0  0.29390  0.20610  0.50000  1.0000
  Cu  Cu5       1.0  0.25000  0.25000  0.00000  1.0000
  Cu  Cu6       1.0  0.75000  0.75000  1.00000  1.0000
