data_image0
_chemical_formula_structural       Cu2Au4
_chemical_formula_sum              "Cu2 Au4"
_cell_length_a       3.74244
_cell_length_b       2.87654
_cell_length_c       9.02474
_cell_angle_alpha    90
_cell_angle_beta     90
_cell_angle_gamma    90

_space_group_name_H-M_alt    "P 1"
_space_group_IT_number       1

loop_
  _space_group_symop_operation_xyz
  'x, y, z'

loop_
  _atom_site_type_symbol
  _atom_site_label
  _atom_site_symmetry_multiplicity
  _atom_site_fract_x
  _atom_site_fract_y
  _atom_site_fract_z
  _atom_site_occupancy
  Cu  Cu1       1.0  0.00000  0.00000  0.00000  1.0000
  Cu  Cu2       1.0  0.50000  0.50000  0.50000  1.0000
  Au  Au1       1.0  0.00000  0.99972  0.34303  1.0000
  Au  Au2       1.0  0.00000  0.00028  0.65697  1.0000
  Au  Au3       1.0  0.50000  0.49972  0.15697  1.0000
  Au  Au4       1.0  0.50000  0.50028  0.84303  1.0000
