data_image0
_chemical_formula_structural       Cu2F6
_chemical_formula_sum              "Cu2 F6"
_cell_length_a       4.63204
_cell_length_b       5.29092
_cell_length_c       3.71569
_cell_angle_alpha    90
_cell_angle_beta     90
_cell_angle_gamma    90

_space_group_name_H-M_alt    "P 1"
_space_group_IT_number       1

loop_
  _space_group_symop_operation_xyz
  'x, y, z'

loop_
  _atom_site_type_symbol
  _atom_site_label
  _atom_site_symmetry_multiplicity
  _atom_site_fract_x
  _atom_site_fract_y
  _atom_site_fract_z
  _atom_site_occupancy
  Cu  Cu1       1.0  0.50000  0.23617  0.50000  1.0000
  Cu  Cu2       1.0  0.00000  0.76383  0.00000  1.0000
  F   F1        1.0  0.00000  0.63166  0.50000  1.0000
  F   F2        1.0  0.50000  0.36834  0.00000  1.0000
  F   F3        1.0  0.00000  0.12771  0.74871  1.0000
  F   F4        1.0  0.50000  0.87229  0.75129  1.0000
  F   F5        1.0  0.00000  0.12771  0.25129  1.0000
  F   F6        1.0  0.50000  0.87229  0.24871  1.0000
