data_image0
_chemical_formula_structural       Cu4Hg6
_chemical_formula_sum              "Cu4 Hg6"
_cell_length_a       6.76776
_cell_length_b       6.76776
_cell_length_c       6.76776
_cell_angle_alpha    130.682
_cell_angle_beta     118.029
_cell_angle_gamma    83.0054

_space_group_name_H-M_alt    "P 1"
_space_group_IT_number       1

loop_
  _space_group_symop_operation_xyz
  'x, y, z'

loop_
  _atom_site_type_symbol
  _atom_site_label
  _atom_site_symmetry_multiplicity
  _atom_site_fract_x
  _atom_site_fract_y
  _atom_site_fract_z
  _atom_site_occupancy
  Cu  Cu1       1.0  0.61026  0.44736  0.16290  1.0000
  Cu  Cu2       1.0  0.38974  0.55264  0.83710  1.0000
  Cu  Cu3       1.0  0.71554  0.05264  0.66290  1.0000
  Cu  Cu4       1.0  0.28446  0.94736  0.33710  1.0000
  Hg  Hg1       1.0  0.43421  0.78741  0.64679  1.0000
  Hg  Hg2       1.0  0.56579  0.21259  0.35321  1.0000
  Hg  Hg3       1.0  0.14062  0.28741  0.85321  1.0000
  Hg  Hg4       1.0  0.85938  0.71259  0.14679  1.0000
  Hg  Hg5       1.0  0.00000  0.75000  0.75000  1.0000
  Hg  Hg6       1.0  0.00000  0.25000  0.25000  1.0000
