data_image0
_chemical_formula_structural       Cu4Br12
_chemical_formula_sum              "Cu4 Br12"
_cell_length_a       8.67896
_cell_length_b       8.67896
_cell_length_c       6.99684
_cell_angle_alpha    90
_cell_angle_beta     90
_cell_angle_gamma    108.402

_space_group_name_H-M_alt    "P 1"
_space_group_IT_number       1

loop_
  _space_group_symop_operation_xyz
  'x, y, z'

loop_
  _atom_site_type_symbol
  _atom_site_label
  _atom_site_symmetry_multiplicity
  _atom_site_fract_x
  _atom_site_fract_y
  _atom_site_fract_z
  _atom_site_occupancy
  Cu  Cu1       1.0  0.62366  0.37634  0.00000  1.0000
  Cu  Cu2       1.0  0.37634  0.62366  0.00000  1.0000
  Cu  Cu3       1.0  0.12366  0.87634  0.50000  1.0000
  Cu  Cu4       1.0  0.87634  0.12366  0.50000  1.0000
  Br  Br1       1.0  0.66333  0.66333  0.98590  1.0000
  Br  Br2       1.0  0.16333  0.16333  0.51410  1.0000
  Br  Br3       1.0  0.83667  0.83667  0.48590  1.0000
  Br  Br4       1.0  0.41627  0.58373  0.50000  1.0000
  Br  Br5       1.0  0.81735  0.31735  0.75000  1.0000
  Br  Br6       1.0  0.91627  0.08373  0.00000  1.0000
  Br  Br7       1.0  0.18265  0.68265  0.25000  1.0000
  Br  Br8       1.0  0.33667  0.33667  0.01410  1.0000
  Br  Br9       1.0  0.58373  0.41627  0.50000  1.0000
  Br  Br10      1.0  0.08373  0.91627  0.00000  1.0000
  Br  Br11      1.0  0.68265  0.18265  0.25000  1.0000
  Br  Br12      1.0  0.31735  0.81735  0.75000  1.0000
