data_image0
_chemical_formula_structural       Cu6Br16
_chemical_formula_sum              "Cu6 Br16"
_cell_length_a       5.9638
_cell_length_b       6.72595
_cell_length_c       15.087
_cell_angle_alpha    86.6344
_cell_angle_beta     90
_cell_angle_gamma    90

_space_group_name_H-M_alt    "P 1"
_space_group_IT_number       1

loop_
  _space_group_symop_operation_xyz
  'x, y, z'

loop_
  _atom_site_type_symbol
  _atom_site_label
  _atom_site_symmetry_multiplicity
  _atom_site_fract_x
  _atom_site_fract_y
  _atom_site_fract_z
  _atom_site_occupancy
  Cu  Cu1       1.0  0.40498  0.75229  0.75096  1.0000
  Cu  Cu2       1.0  0.59502  0.24771  0.24904  1.0000
  Cu  Cu3       1.0  0.50000  0.00000  0.00000  1.0000
  Cu  Cu4       1.0  0.90498  0.24771  0.74904  1.0000
  Cu  Cu5       1.0  0.09502  0.75229  0.25096  1.0000
  Cu  Cu6       1.0  0.00000  0.00000  0.50000  1.0000
  Br  Br1       1.0  0.79634  0.55120  0.18877  1.0000
  Br  Br2       1.0  0.60423  0.05058  0.68596  1.0000
  Br  Br3       1.0  0.60782  0.72966  0.91950  1.0000
  Br  Br4       1.0  0.74800  0.22442  0.42401  1.0000
  Br  Br5       1.0  0.75200  0.22442  0.92401  1.0000
  Br  Br6       1.0  0.89577  0.05058  0.18596  1.0000
  Br  Br7       1.0  0.89218  0.72966  0.41950  1.0000
  Br  Br8       1.0  0.70366  0.55120  0.68877  1.0000
  Br  Br9       1.0  0.10423  0.94942  0.81404  1.0000
  Br  Br10      1.0  0.24800  0.77558  0.07599  1.0000
  Br  Br11      1.0  0.10782  0.27034  0.58050  1.0000
  Br  Br12      1.0  0.29634  0.44880  0.31123  1.0000
  Br  Br13      1.0  0.39218  0.27034  0.08050  1.0000
  Br  Br14      1.0  0.20366  0.44880  0.81123  1.0000
  Br  Br15      1.0  0.39577  0.94942  0.31404  1.0000
  Br  Br16      1.0  0.25200  0.77558  0.57599  1.0000
