data_image0
_chemical_formula_structural       Cu2Br4
_chemical_formula_sum              "Cu2 Br4"
_cell_length_a       5.5643
_cell_length_b       5.5643
_cell_length_c       5.5643
_cell_angle_alpha    110.809
_cell_angle_beta     110.809
_cell_angle_gamma    106.828

_space_group_name_H-M_alt    "P 1"
_space_group_IT_number       1

loop_
  _space_group_symop_operation_xyz
  'x, y, z'

loop_
  _atom_site_type_symbol
  _atom_site_label
  _atom_site_symmetry_multiplicity
  _atom_site_fract_x
  _atom_site_fract_y
  _atom_site_fract_z
  _atom_site_occupancy
  Cu  Cu1       1.0  0.75000  0.75000  0.00000  1.0000
  Cu  Cu2       1.0  0.25000  0.25000  0.00000  1.0000
  Br  Br1       1.0  0.68785  0.18785  0.87569  1.0000
  Br  Br2       1.0  0.18785  0.31215  0.50000  1.0000
  Br  Br3       1.0  0.81215  0.68785  0.50000  1.0000
  Br  Br4       1.0  0.31215  0.81215  0.12431  1.0000
