data_image0
_chemical_formula_structural       Au4Cu4
_chemical_formula_sum              "Au4 Cu4"
_cell_length_a       4.97866
_cell_length_b       4.97866
_cell_length_c       4.97866
_cell_angle_alpha    90
_cell_angle_beta     90
_cell_angle_gamma    90

_space_group_name_H-M_alt    "P 1"
_space_group_IT_number       1

loop_
  _space_group_symop_operation_xyz
  'x, y, z'

loop_
  _atom_site_type_symbol
  _atom_site_label
  _atom_site_symmetry_multiplicity
  _atom_site_fract_x
  _atom_site_fract_y
  _atom_site_fract_z
  _atom_site_occupancy
  Au  Au1       1.0  0.84560  0.65440  0.34560  1.0000
  Au  Au2       1.0  0.65440  0.34560  0.84560  1.0000
  Au  Au3       1.0  0.34560  0.84560  0.65440  1.0000
  Au  Au4       1.0  0.15440  0.15440  0.15440  1.0000
  Cu  Cu1       1.0  0.15373  0.34627  0.65373  1.0000
  Cu  Cu2       1.0  0.34627  0.65373  0.15373  1.0000
  Cu  Cu3       1.0  0.65373  0.15373  0.34627  1.0000
  Cu  Cu4       1.0  0.84627  0.84627  0.84627  1.0000
