data_image0
_chemical_formula_structural       Cu4Br4
_chemical_formula_sum              "Cu4 Br4"
_cell_length_a       5.69867
_cell_length_b       5.69867
_cell_length_c       5.69867
_cell_angle_alpha    90
_cell_angle_beta     90
_cell_angle_gamma    90

_space_group_name_H-M_alt    "P 1"
_space_group_IT_number       1

loop_
  _space_group_symop_operation_xyz
  'x, y, z'

loop_
  _atom_site_type_symbol
  _atom_site_label
  _atom_site_symmetry_multiplicity
  _atom_site_fract_x
  _atom_site_fract_y
  _atom_site_fract_z
  _atom_site_occupancy
  Cu  Cu1       1.0  0.99021  0.50979  0.49021  1.0000
  Cu  Cu2       1.0  0.50979  0.49021  0.99021  1.0000
  Cu  Cu3       1.0  0.49021  0.99021  0.50979  1.0000
  Cu  Cu4       1.0  0.00979  0.00979  0.00979  1.0000
  Br  Br1       1.0  0.24511  0.25489  0.74511  1.0000
  Br  Br2       1.0  0.25489  0.74511  0.24511  1.0000
  Br  Br3       1.0  0.74511  0.24511  0.25489  1.0000
  Br  Br4       1.0  0.75489  0.75489  0.75489  1.0000
