data_image0
_chemical_formula_structural       Br9Cu13
_chemical_formula_sum              "Br9 Cu13"
_cell_length_a       9.49382
_cell_length_b       9.49382
_cell_length_c       5.24931
_cell_angle_alpha    90
_cell_angle_beta     90
_cell_angle_gamma    120

_space_group_name_H-M_alt    "P 1"
_space_group_IT_number       1

loop_
  _space_group_symop_operation_xyz
  'x, y, z'

loop_
  _atom_site_type_symbol
  _atom_site_label
  _atom_site_symmetry_multiplicity
  _atom_site_fract_x
  _atom_site_fract_y
  _atom_site_fract_z
  _atom_site_occupancy
  Br  Br1       1.0  0.00000  0.00000  0.50000  1.0000
  Br  Br2       1.0  0.33333  0.66667  0.50978  1.0000
  Br  Br3       1.0  0.66667  0.33333  0.49022  1.0000
  Br  Br4       1.0  0.19448  0.80552  0.00887  1.0000
  Br  Br5       1.0  0.19448  0.38895  0.00887  1.0000
  Br  Br6       1.0  0.61105  0.80552  0.00887  1.0000
  Br  Br7       1.0  0.38895  0.19448  0.99113  1.0000
  Br  Br8       1.0  0.80552  0.61105  0.99113  1.0000
  Br  Br9       1.0  0.80552  0.19448  0.99113  1.0000
  Cu  Cu1       1.0  0.00000  0.00000  0.00000  1.0000
  Cu  Cu2       1.0  0.50000  0.00000  0.00000  1.0000
  Cu  Cu3       1.0  0.00000  0.50000  0.00000  1.0000
  Cu  Cu4       1.0  0.50000  0.50000  0.00000  1.0000
  Cu  Cu5       1.0  0.50000  0.00000  0.50000  1.0000
  Cu  Cu6       1.0  0.00000  0.50000  0.50000  1.0000
  Cu  Cu7       1.0  0.50000  0.50000  0.50000  1.0000
  Cu  Cu8       1.0  0.17633  0.82367  0.50902  1.0000
  Cu  Cu9       1.0  0.17633  0.35265  0.50902  1.0000
  Cu  Cu10      1.0  0.64735  0.82367  0.50902  1.0000
  Cu  Cu11      1.0  0.35265  0.17633  0.49098  1.0000
  Cu  Cu12      1.0  0.82367  0.64735  0.49098  1.0000
  Cu  Cu13      1.0  0.82367  0.17633  0.49098  1.0000
