data_image0
_chemical_formula_structural       Cu2Cl6
_chemical_formula_sum              "Cu2 Cl6"
_cell_length_a       4.37268
_cell_length_b       8.66813
_cell_length_c       5.01397
_cell_angle_alpha    90
_cell_angle_beta     90
_cell_angle_gamma    90

_space_group_name_H-M_alt    "P 1"
_space_group_IT_number       1

loop_
  _space_group_symop_operation_xyz
  'x, y, z'

loop_
  _atom_site_type_symbol
  _atom_site_label
  _atom_site_symmetry_multiplicity
  _atom_site_fract_x
  _atom_site_fract_y
  _atom_site_fract_z
  _atom_site_occupancy
  Cu  Cu1       1.0  0.50000  0.62575  0.50000  1.0000
  Cu  Cu2       1.0  0.00000  0.37425  0.00000  1.0000
  Cl  Cl1       1.0  0.00000  0.53436  0.50000  1.0000
  Cl  Cl2       1.0  0.50000  0.46564  0.00000  1.0000
  Cl  Cl3       1.0  0.00000  0.15209  0.74378  1.0000
  Cl  Cl4       1.0  0.50000  0.84791  0.75622  1.0000
  Cl  Cl5       1.0  0.00000  0.15209  0.25622  1.0000
  Cl  Cl6       1.0  0.50000  0.84791  0.24378  1.0000
