data_image0
_chemical_formula_structural       Au8Cu4
_chemical_formula_sum              "Au8 Cu4"
_cell_length_a       8.67256
_cell_length_b       4.35242
_cell_length_c       7.08523
_cell_angle_alpha    54.7594
_cell_angle_beta     90
_cell_angle_gamma    90

_space_group_name_H-M_alt    "P 1"
_space_group_IT_number       1

loop_
  _space_group_symop_operation_xyz
  'x, y, z'

loop_
  _atom_site_type_symbol
  _atom_site_label
  _atom_site_symmetry_multiplicity
  _atom_site_fract_x
  _atom_site_fract_y
  _atom_site_fract_z
  _atom_site_occupancy
  Au  Au1       1.0  0.38485  0.29178  0.27376  1.0000
  Au  Au2       1.0  0.61515  0.29178  0.77376  1.0000
  Au  Au3       1.0  0.37091  0.76606  0.77273  1.0000
  Au  Au4       1.0  0.87090  0.26168  0.25498  1.0000
  Au  Au5       1.0  0.62909  0.76606  0.27273  1.0000
  Au  Au6       1.0  0.12910  0.26168  0.75498  1.0000
  Au  Au7       1.0  0.88487  0.73599  0.75401  1.0000
  Au  Au8       1.0  0.11513  0.73599  0.25401  1.0000
  Cu  Cu1       1.0  0.37073  0.02410  0.02926  1.0000
  Cu  Cu2       1.0  0.62927  0.02410  0.52926  1.0000
  Cu  Cu3       1.0  0.87072  0.00369  0.99856  1.0000
  Cu  Cu4       1.0  0.12928  0.00369  0.49856  1.0000
