data_image0
_chemical_formula_structural       Cu6Br4
_chemical_formula_sum              "Cu6 Br4"
_cell_length_a       6.2596
_cell_length_b       6.2596
_cell_length_c       5.08919
_cell_angle_alpha    90
_cell_angle_beta     90
_cell_angle_gamma    90

_space_group_name_H-M_alt    "P 1"
_space_group_IT_number       1

loop_
  _space_group_symop_operation_xyz
  'x, y, z'

loop_
  _atom_site_type_symbol
  _atom_site_label
  _atom_site_symmetry_multiplicity
  _atom_site_fract_x
  _atom_site_fract_y
  _atom_site_fract_z
  _atom_site_occupancy
  Cu  Cu1       1.0  0.00000  0.00000  0.00000  1.0000
  Cu  Cu2       1.0  0.50000  0.50000  0.00000  1.0000
  Cu  Cu3       1.0  0.15552  0.65552  0.80231  1.0000
  Cu  Cu4       1.0  0.34448  0.15552  0.19769  1.0000
  Cu  Cu5       1.0  0.65552  0.84448  0.19769  1.0000
  Cu  Cu6       1.0  0.84448  0.34448  0.80231  1.0000
  Br  Br1       1.0  0.26058  0.76058  0.31515  1.0000
  Br  Br2       1.0  0.23942  0.26058  0.68485  1.0000
  Br  Br3       1.0  0.76058  0.73942  0.68485  1.0000
  Br  Br4       1.0  0.73942  0.23942  0.31515  1.0000
