data_image0
_chemical_formula_structural       Cu3Hg4
_chemical_formula_sum              "Cu3 Hg4"
_cell_length_a       6.40114
_cell_length_b       6.40114
_cell_length_c       7.19273
_cell_angle_alpha    56.9569
_cell_angle_beta     56.9569
_cell_angle_gamma    37.6011

_space_group_name_H-M_alt    "P 1"
_space_group_IT_number       1

loop_
  _space_group_symop_operation_xyz
  'x, y, z'

loop_
  _atom_site_type_symbol
  _atom_site_label
  _atom_site_symmetry_multiplicity
  _atom_site_fract_x
  _atom_site_fract_y
  _atom_site_fract_z
  _atom_site_occupancy
  Cu  Cu1       1.0  0.00000  0.00000  0.00000  1.0000
  Cu  Cu2       1.0  0.24912  0.24912  0.73680  1.0000
  Cu  Cu3       1.0  0.75088  0.75088  0.26320  1.0000
  Hg  Hg1       1.0  0.10783  0.10783  0.54459  1.0000
  Hg  Hg2       1.0  0.89217  0.89217  0.45541  1.0000
  Hg  Hg3       1.0  0.62580  0.62580  0.05343  1.0000
  Hg  Hg4       1.0  0.37420  0.37420  0.94657  1.0000
