data_image0
_chemical_formula_structural       Cu6Hg4
_chemical_formula_sum              "Cu6 Hg4"
_cell_length_a       5.35204
_cell_length_b       5.35204
_cell_length_c       6.12399
_cell_angle_alpha    90
_cell_angle_beta     90
_cell_angle_gamma    90

_space_group_name_H-M_alt    "P 1"
_space_group_IT_number       1

loop_
  _space_group_symop_operation_xyz
  'x, y, z'

loop_
  _atom_site_type_symbol
  _atom_site_label
  _atom_site_symmetry_multiplicity
  _atom_site_fract_x
  _atom_site_fract_y
  _atom_site_fract_z
  _atom_site_occupancy
  Cu  Cu1       1.0  0.00000  0.00000  0.00000  1.0000
  Cu  Cu2       1.0  0.50000  0.50000  0.00000  1.0000
  Cu  Cu3       1.0  0.17232  0.67232  0.75533  1.0000
  Cu  Cu4       1.0  0.32768  0.17232  0.24467  1.0000
  Cu  Cu5       1.0  0.67232  0.82768  0.24467  1.0000
  Cu  Cu6       1.0  0.82768  0.32768  0.75533  1.0000
  Hg  Hg1       1.0  0.19127  0.69127  0.30537  1.0000
  Hg  Hg2       1.0  0.30873  0.19127  0.69463  1.0000
  Hg  Hg3       1.0  0.69127  0.80873  0.69463  1.0000
  Hg  Hg4       1.0  0.80873  0.30873  0.30537  1.0000
