data_image0
_chemical_formula_structural       Hg4Cu4
_chemical_formula_sum              "Hg4 Cu4"
_cell_length_a       4.17588
_cell_length_b       6.28825
_cell_length_c       5.41196
_cell_angle_alpha    90
_cell_angle_beta     90
_cell_angle_gamma    90

_space_group_name_H-M_alt    "P 1"
_space_group_IT_number       1

loop_
  _space_group_symop_operation_xyz
  'x, y, z'

loop_
  _atom_site_type_symbol
  _atom_site_label
  _atom_site_symmetry_multiplicity
  _atom_site_fract_x
  _atom_site_fract_y
  _atom_site_fract_z
  _atom_site_occupancy
  Hg  Hg1       1.0  0.75000  0.83680  0.63095  1.0000
  Hg  Hg2       1.0  0.25000  0.16320  0.36905  1.0000
  Hg  Hg3       1.0  0.75000  0.33680  0.86905  1.0000
  Hg  Hg4       1.0  0.25000  0.66320  0.13095  1.0000
  Cu  Cu1       1.0  0.75000  0.96011  0.13052  1.0000
  Cu  Cu2       1.0  0.25000  0.03989  0.86948  1.0000
  Cu  Cu3       1.0  0.75000  0.46011  0.36948  1.0000
  Cu  Cu4       1.0  0.25000  0.53989  0.63052  1.0000
