data_image0
_chemical_formula_structural       Hg10Cu6
_chemical_formula_sum              "Hg10 Cu6"
_cell_length_a       8.05014
_cell_length_b       8.05014
_cell_length_c       8.05014
_cell_angle_alpha    128.756
_cell_angle_beta     128.756
_cell_angle_gamma    75.4032

_space_group_name_H-M_alt    "P 1"
_space_group_IT_number       1

loop_
  _space_group_symop_operation_xyz
  'x, y, z'

loop_
  _atom_site_type_symbol
  _atom_site_label
  _atom_site_symmetry_multiplicity
  _atom_site_fract_x
  _atom_site_fract_y
  _atom_site_fract_z
  _atom_site_occupancy
  Hg  Hg1       1.0  0.50957  0.68311  0.50000  1.0000
  Hg  Hg2       1.0  0.49043  0.31689  0.50000  1.0000
  Hg  Hg3       1.0  0.50000  0.50000  0.00000  1.0000
  Hg  Hg4       1.0  0.00000  0.00000  0.00000  1.0000
  Hg  Hg5       1.0  0.18311  0.00957  0.50000  1.0000
  Hg  Hg6       1.0  0.00957  0.50957  0.82646  1.0000
  Hg  Hg7       1.0  0.68311  0.18311  0.17354  1.0000
  Hg  Hg8       1.0  0.31689  0.81689  0.82646  1.0000
  Hg  Hg9       1.0  0.99043  0.49043  0.17354  1.0000
  Hg  Hg10      1.0  0.81689  0.99043  0.50000  1.0000
  Cu  Cu1       1.0  0.87373  0.62627  0.50000  1.0000
  Cu  Cu2       1.0  0.62627  0.12627  0.75253  1.0000
  Cu  Cu3       1.0  0.37373  0.87373  0.24747  1.0000
  Cu  Cu4       1.0  0.12627  0.37373  0.50000  1.0000
  Cu  Cu5       1.0  0.25000  0.25000  0.00000  1.0000
  Cu  Cu6       1.0  0.75000  0.75000  0.00000  1.0000
