data_image0
_chemical_formula_structural       CuHg4
_chemical_formula_sum              "Cu1 Hg4"
_cell_length_a       5.39642
_cell_length_b       5.39642
_cell_length_c       5.39642
_cell_angle_alpha    101.335
_cell_angle_beta     101.335
_cell_angle_gamma    127.366

_space_group_name_H-M_alt    "P 1"
_space_group_IT_number       1

loop_
  _space_group_symop_operation_xyz
  'x, y, z'

loop_
  _atom_site_type_symbol
  _atom_site_label
  _atom_site_symmetry_multiplicity
  _atom_site_fract_x
  _atom_site_fract_y
  _atom_site_fract_z
  _atom_site_occupancy
  Cu  Cu1       1.0  0.00000  0.00000  0.00000  1.0000
  Hg  Hg1       1.0  0.62500  0.80035  0.42536  1.0000
  Hg  Hg2       1.0  0.37500  0.19965  0.57464  1.0000
  Hg  Hg3       1.0  0.19965  0.62500  0.82465  1.0000
  Hg  Hg4       1.0  0.80035  0.37500  0.17535  1.0000
