data_image0
_chemical_formula_structural       Cu4Hg8
_chemical_formula_sum              "Cu4 Hg8"
_cell_length_a       8.8798
_cell_length_b       8.8798
_cell_length_c       8.30212
_cell_angle_alpha    90
_cell_angle_beta     90
_cell_angle_gamma    158.035

_space_group_name_H-M_alt    "P 1"
_space_group_IT_number       1

loop_
  _space_group_symop_operation_xyz
  'x, y, z'

loop_
  _atom_site_type_symbol
  _atom_site_label
  _atom_site_symmetry_multiplicity
  _atom_site_fract_x
  _atom_site_fract_y
  _atom_site_fract_z
  _atom_site_occupancy
  Cu  Cu1       1.0  0.22290  0.77710  0.19167  1.0000
  Cu  Cu2       1.0  0.77710  0.22290  0.69167  1.0000
  Cu  Cu3       1.0  0.54590  0.45410  0.75192  1.0000
  Cu  Cu4       1.0  0.45410  0.54590  0.25192  1.0000
  Hg  Hg1       1.0  0.67919  0.32081  0.94486  1.0000
  Hg  Hg2       1.0  0.32081  0.67919  0.44486  1.0000
  Hg  Hg3       1.0  0.38840  0.61160  0.79739  1.0000
  Hg  Hg4       1.0  0.61160  0.38840  0.29739  1.0000
  Hg  Hg5       1.0  0.15760  0.84240  0.61756  1.0000
  Hg  Hg6       1.0  0.84240  0.15760  0.11756  1.0000
  Hg  Hg7       1.0  0.98493  0.01507  0.51089  1.0000
  Hg  Hg8       1.0  0.01507  0.98493  0.01089  1.0000
