data_image0
_chemical_formula_structural       Cu4Hg4
_chemical_formula_sum              "Cu4 Hg4"
_cell_length_a       5.17836
_cell_length_b       5.17836
_cell_length_c       5.17836
_cell_angle_alpha    90
_cell_angle_beta     90
_cell_angle_gamma    90

_space_group_name_H-M_alt    "P 1"
_space_group_IT_number       1

loop_
  _space_group_symop_operation_xyz
  'x, y, z'

loop_
  _atom_site_type_symbol
  _atom_site_label
  _atom_site_symmetry_multiplicity
  _atom_site_fract_x
  _atom_site_fract_y
  _atom_site_fract_z
  _atom_site_occupancy
  Cu  Cu1       1.0  0.85129  0.64871  0.35129  1.0000
  Cu  Cu2       1.0  0.64871  0.35129  0.85129  1.0000
  Cu  Cu3       1.0  0.35129  0.85129  0.64871  1.0000
  Cu  Cu4       1.0  0.14871  0.14871  0.14871  1.0000
  Hg  Hg1       1.0  0.15754  0.34246  0.65754  1.0000
  Hg  Hg2       1.0  0.34246  0.65754  0.15754  1.0000
  Hg  Hg3       1.0  0.65754  0.15754  0.34246  1.0000
  Hg  Hg4       1.0  0.84246  0.84246  0.84246  1.0000
