data_image0
_chemical_formula_structural       Cu6Hg16
_chemical_formula_sum              "Cu6 Hg16"
_cell_length_a       6.35696
_cell_length_b       6.32522
_cell_length_c       14.0443
_cell_angle_alpha    63.9519
_cell_angle_beta     90
_cell_angle_gamma    90

_space_group_name_H-M_alt    "P 1"
_space_group_IT_number       1

loop_
  _space_group_symop_operation_xyz
  'x, y, z'

loop_
  _atom_site_type_symbol
  _atom_site_label
  _atom_site_symmetry_multiplicity
  _atom_site_fract_x
  _atom_site_fract_y
  _atom_site_fract_z
  _atom_site_occupancy
  Cu  Cu1       1.0  0.49662  0.74631  0.75014  1.0000
  Cu  Cu2       1.0  0.50338  0.25369  0.24986  1.0000
  Cu  Cu3       1.0  0.50000  0.00000  0.00000  1.0000
  Cu  Cu4       1.0  0.99662  0.25369  0.74986  1.0000
  Cu  Cu5       1.0  0.00338  0.74631  0.25014  1.0000
  Cu  Cu6       1.0  0.00000  0.00000  0.50000  1.0000
  Hg  Hg1       1.0  0.75734  0.62268  0.12020  1.0000
  Hg  Hg2       1.0  0.73998  0.13180  0.62217  1.0000
  Hg  Hg3       1.0  0.75386  0.87012  0.87571  1.0000
  Hg  Hg4       1.0  0.74668  0.37992  0.37936  1.0000
  Hg  Hg5       1.0  0.75332  0.37992  0.87936  1.0000
  Hg  Hg6       1.0  0.76002  0.13180  0.12217  1.0000
  Hg  Hg7       1.0  0.74614  0.87012  0.37571  1.0000
  Hg  Hg8       1.0  0.74266  0.62268  0.62020  1.0000
  Hg  Hg9       1.0  0.23998  0.86820  0.87783  1.0000
  Hg  Hg10      1.0  0.24668  0.62008  0.12064  1.0000
  Hg  Hg11      1.0  0.25386  0.12988  0.62429  1.0000
  Hg  Hg12      1.0  0.25734  0.37732  0.37980  1.0000
  Hg  Hg13      1.0  0.24614  0.12988  0.12429  1.0000
  Hg  Hg14      1.0  0.24266  0.37732  0.87980  1.0000
  Hg  Hg15      1.0  0.26002  0.86820  0.37783  1.0000
  Hg  Hg16      1.0  0.25332  0.62008  0.62064  1.0000
