data_image0
_chemical_formula_structural       I6Cu2
_chemical_formula_sum              "I6 Cu2"
_cell_length_a       10.9178
_cell_length_b       10.9178
_cell_length_c       3.09017
_cell_angle_alpha    90
_cell_angle_beta     90
_cell_angle_gamma    120

_space_group_name_H-M_alt    "P 1"
_space_group_IT_number       1

loop_
  _space_group_symop_operation_xyz
  'x, y, z'

loop_
  _atom_site_type_symbol
  _atom_site_label
  _atom_site_symmetry_multiplicity
  _atom_site_fract_x
  _atom_site_fract_y
  _atom_site_fract_z
  _atom_site_occupancy
  I   I1        1.0  0.20714  0.41428  0.25000  1.0000
  I   I2        1.0  0.58572  0.79286  0.25000  1.0000
  I   I3        1.0  0.20714  0.79286  0.25000  1.0000
  I   I4        1.0  0.79286  0.58572  0.75000  1.0000
  I   I5        1.0  0.41428  0.20714  0.75000  1.0000
  I   I6        1.0  0.79286  0.20714  0.75000  1.0000
  Cu  Cu1       1.0  0.33333  0.66667  0.75000  1.0000
  Cu  Cu2       1.0  0.66667  0.33333  0.25000  1.0000
