data_image0
_chemical_formula_structural       Cu6I4
_chemical_formula_sum              "Cu6 I4"
_cell_length_a       6.21578
_cell_length_b       6.21578
_cell_length_c       5.6913
_cell_angle_alpha    90
_cell_angle_beta     90
_cell_angle_gamma    90

_space_group_name_H-M_alt    "P 1"
_space_group_IT_number       1

loop_
  _space_group_symop_operation_xyz
  'x, y, z'

loop_
  _atom_site_type_symbol
  _atom_site_label
  _atom_site_symmetry_multiplicity
  _atom_site_fract_x
  _atom_site_fract_y
  _atom_site_fract_z
  _atom_site_occupancy
  Cu  Cu1       1.0  0.00000  0.00000  0.00000  1.0000
  Cu  Cu2       1.0  0.50000  0.50000  0.00000  1.0000
  Cu  Cu3       1.0  0.16383  0.66383  0.77512  1.0000
  Cu  Cu4       1.0  0.33617  0.16383  0.22488  1.0000
  Cu  Cu5       1.0  0.66383  0.83617  0.22488  1.0000
  Cu  Cu6       1.0  0.83617  0.33617  0.77512  1.0000
  I   I1        1.0  0.23558  0.73558  0.27917  1.0000
  I   I2        1.0  0.26442  0.23558  0.72083  1.0000
  I   I3        1.0  0.73558  0.76442  0.72083  1.0000
  I   I4        1.0  0.76442  0.26442  0.27917  1.0000
