data_image0
_chemical_formula_structural       Hg2Cu6
_chemical_formula_sum              "Hg2 Cu6"
_cell_length_a       8.17925
_cell_length_b       8.17925
_cell_length_c       8.17925
_cell_angle_alpha    152.767
_cell_angle_beta     152.767
_cell_angle_gamma    38.8947

_space_group_name_H-M_alt    "P 1"
_space_group_IT_number       1

loop_
  _space_group_symop_operation_xyz
  'x, y, z'

loop_
  _atom_site_type_symbol
  _atom_site_label
  _atom_site_symmetry_multiplicity
  _atom_site_fract_x
  _atom_site_fract_y
  _atom_site_fract_z
  _atom_site_occupancy
  Hg  Hg1       1.0  0.87405  0.87405  0.00000  1.0000
  Hg  Hg2       1.0  0.12595  0.12595  0.00000  1.0000
  Cu  Cu1       1.0  0.00000  0.50000  0.50000  1.0000
  Cu  Cu2       1.0  0.50000  0.00000  0.50000  1.0000
  Cu  Cu3       1.0  0.75000  0.25000  0.50000  1.0000
  Cu  Cu4       1.0  0.25000  0.75000  0.50000  1.0000
  Cu  Cu5       1.0  0.62274  0.62274  0.00000  1.0000
  Cu  Cu6       1.0  0.37726  0.37726  0.00000  1.0000
