data_image0
_chemical_formula_structural       Cu4Hg12
_chemical_formula_sum              "Cu4 Hg12"
_cell_length_a       9.01034
_cell_length_b       9.01034
_cell_length_c       5.72475
_cell_angle_alpha    90
_cell_angle_beta     90
_cell_angle_gamma    130.818

_space_group_name_H-M_alt    "P 1"
_space_group_IT_number       1

loop_
  _space_group_symop_operation_xyz
  'x, y, z'

loop_
  _atom_site_type_symbol
  _atom_site_label
  _atom_site_symmetry_multiplicity
  _atom_site_fract_x
  _atom_site_fract_y
  _atom_site_fract_z
  _atom_site_occupancy
  Cu  Cu1       1.0  0.64493  0.35507  0.00000  1.0000
  Cu  Cu2       1.0  0.35507  0.64493  0.00000  1.0000
  Cu  Cu3       1.0  0.14493  0.85507  0.50000  1.0000
  Cu  Cu4       1.0  0.85507  0.14493  0.50000  1.0000
  Hg  Hg1       1.0  0.67574  0.67574  0.12942  1.0000
  Hg  Hg2       1.0  0.17574  0.17574  0.37058  1.0000
  Hg  Hg3       1.0  0.82426  0.82426  0.62942  1.0000
  Hg  Hg4       1.0  0.38194  0.61806  0.50000  1.0000
  Hg  Hg5       1.0  0.00162  0.50162  0.75000  1.0000
  Hg  Hg6       1.0  0.88194  0.11806  0.00000  1.0000
  Hg  Hg7       1.0  0.99838  0.49838  0.25000  1.0000
  Hg  Hg8       1.0  0.32426  0.32426  0.87058  1.0000
  Hg  Hg9       1.0  0.61806  0.38194  0.50000  1.0000
  Hg  Hg10      1.0  0.11806  0.88194  0.00000  1.0000
  Hg  Hg11      1.0  0.49838  0.99838  0.25000  1.0000
  Hg  Hg12      1.0  0.50162  0.00162  0.75000  1.0000
