data_image0
_chemical_formula_structural       Hg6Cu4
_chemical_formula_sum              "Hg6 Cu4"
_cell_length_a       7.39135
_cell_length_b       7.39135
_cell_length_c       9.84931
_cell_angle_alpha    55.2675
_cell_angle_beta     55.2675
_cell_angle_gamma    27.119

_space_group_name_H-M_alt    "P 1"
_space_group_IT_number       1

loop_
  _space_group_symop_operation_xyz
  'x, y, z'

loop_
  _atom_site_type_symbol
  _atom_site_label
  _atom_site_symmetry_multiplicity
  _atom_site_fract_x
  _atom_site_fract_y
  _atom_site_fract_z
  _atom_site_occupancy
  Hg  Hg1       1.0  0.12972  0.12972  0.35329  1.0000
  Hg  Hg2       1.0  0.87028  0.87028  0.64671  1.0000
  Hg  Hg3       1.0  0.44534  0.44534  0.29069  1.0000
  Hg  Hg4       1.0  0.55466  0.55466  0.70931  1.0000
  Hg  Hg5       1.0  0.88041  0.88041  0.05789  1.0000
  Hg  Hg6       1.0  0.11959  0.11959  0.94211  1.0000
  Cu  Cu1       1.0  0.32400  0.32400  0.89585  1.0000
  Cu  Cu2       1.0  0.67600  0.67600  0.10415  1.0000
  Cu  Cu3       1.0  0.23998  0.23998  0.59966  1.0000
  Cu  Cu4       1.0  0.76002  0.76002  0.40034  1.0000
