data_image0
_chemical_formula_structural       Cu3Hg6
_chemical_formula_sum              "Cu3 Hg6"
_cell_length_a       5.02087
_cell_length_b       5.02087
_cell_length_c       8.18571
_cell_angle_alpha    90
_cell_angle_beta     90
_cell_angle_gamma    120

_space_group_name_H-M_alt    "P 1"
_space_group_IT_number       1

loop_
  _space_group_symop_operation_xyz
  'x, y, z'

loop_
  _atom_site_type_symbol
  _atom_site_label
  _atom_site_symmetry_multiplicity
  _atom_site_fract_x
  _atom_site_fract_y
  _atom_site_fract_z
  _atom_site_occupancy
  Cu  Cu1       1.0  0.00000  0.50000  0.16667  1.0000
  Cu  Cu2       1.0  0.50000  0.50000  0.83333  1.0000
  Cu  Cu3       1.0  0.50000  0.00000  0.50000  1.0000
  Hg  Hg1       1.0  0.83097  0.66194  0.50000  1.0000
  Hg  Hg2       1.0  0.16903  0.83097  0.83333  1.0000
  Hg  Hg3       1.0  0.66194  0.83097  0.16667  1.0000
  Hg  Hg4       1.0  0.16903  0.33806  0.50000  1.0000
  Hg  Hg5       1.0  0.83097  0.16903  0.83333  1.0000
  Hg  Hg6       1.0  0.33806  0.16903  0.16667  1.0000
