data_image0
_chemical_formula_structural       I3Cu3
_chemical_formula_sum              "I3 Cu3"
_cell_length_a       4.24669
_cell_length_b       4.24669
_cell_length_c       9.71759
_cell_angle_alpha    90
_cell_angle_beta     90
_cell_angle_gamma    120

_space_group_name_H-M_alt    "P 1"
_space_group_IT_number       1

loop_
  _space_group_symop_operation_xyz
  'x, y, z'

loop_
  _atom_site_type_symbol
  _atom_site_label
  _atom_site_symmetry_multiplicity
  _atom_site_fract_x
  _atom_site_fract_y
  _atom_site_fract_z
  _atom_site_occupancy
  I   I1        1.0  0.49898  0.49898  0.00000  1.0000
  I   I2        1.0  0.00000  0.50102  0.66667  1.0000
  I   I3        1.0  0.50102  0.00000  0.33333  1.0000
  Cu  Cu1       1.0  0.49708  0.49708  0.50000  1.0000
  Cu  Cu2       1.0  1.00000  0.50292  0.16667  1.0000
  Cu  Cu3       1.0  0.50292  1.00000  0.83333  1.0000
