data_image0
_chemical_formula_structural       Hg9Cu13
_chemical_formula_sum              "Hg9 Cu13"
_cell_length_a       8.75783
_cell_length_b       8.75783
_cell_length_c       5.38555
_cell_angle_alpha    90
_cell_angle_beta     90
_cell_angle_gamma    120

_space_group_name_H-M_alt    "P 1"
_space_group_IT_number       1

loop_
  _space_group_symop_operation_xyz
  'x, y, z'

loop_
  _atom_site_type_symbol
  _atom_site_label
  _atom_site_symmetry_multiplicity
  _atom_site_fract_x
  _atom_site_fract_y
  _atom_site_fract_z
  _atom_site_occupancy
  Hg  Hg1       1.0  0.00000  0.00000  0.50000  1.0000
  Hg  Hg2       1.0  0.33333  0.66667  0.74291  1.0000
  Hg  Hg3       1.0  0.66667  0.33333  0.25709  1.0000
  Hg  Hg4       1.0  0.19401  0.80599  0.25707  1.0000
  Hg  Hg5       1.0  0.19401  0.38802  0.25707  1.0000
  Hg  Hg6       1.0  0.61198  0.80599  0.25707  1.0000
  Hg  Hg7       1.0  0.38802  0.19401  0.74293  1.0000
  Hg  Hg8       1.0  0.80599  0.61198  0.74293  1.0000
  Hg  Hg9       1.0  0.80599  0.19401  0.74293  1.0000
  Cu  Cu1       1.0  0.00000  0.00000  0.00000  1.0000
  Cu  Cu2       1.0  0.50000  0.00000  0.00000  1.0000
  Cu  Cu3       1.0  0.00000  0.50000  0.00000  1.0000
  Cu  Cu4       1.0  0.50000  0.50000  0.00000  1.0000
  Cu  Cu5       1.0  0.50000  0.00000  0.50000  1.0000
  Cu  Cu6       1.0  0.00000  0.50000  0.50000  1.0000
  Cu  Cu7       1.0  0.50000  0.50000  0.50000  1.0000
  Cu  Cu8       1.0  0.15871  0.84129  0.76909  1.0000
  Cu  Cu9       1.0  0.15871  0.31742  0.76909  1.0000
  Cu  Cu10      1.0  0.68258  0.84129  0.76909  1.0000
  Cu  Cu11      1.0  0.31742  0.15871  0.23091  1.0000
  Cu  Cu12      1.0  0.84129  0.68258  0.23091  1.0000
  Cu  Cu13      1.0  0.84129  0.15871  0.23091  1.0000
