data_image0
_chemical_formula_structural       Cu2Hg4
_chemical_formula_sum              "Cu2 Hg4"
_cell_length_a       3.87466
_cell_length_b       5.77179
_cell_length_c       6.56151
_cell_angle_alpha    90
_cell_angle_beta     90
_cell_angle_gamma    90

_space_group_name_H-M_alt    "P 1"
_space_group_IT_number       1

loop_
  _space_group_symop_operation_xyz
  'x, y, z'

loop_
  _atom_site_type_symbol
  _atom_site_label
  _atom_site_symmetry_multiplicity
  _atom_site_fract_x
  _atom_site_fract_y
  _atom_site_fract_z
  _atom_site_occupancy
  Cu  Cu1       1.0  0.00000  0.00000  0.00000  1.0000
  Cu  Cu2       1.0  0.50000  0.50000  0.50000  1.0000
  Hg  Hg1       1.0  0.00000  0.23920  0.33744  1.0000
  Hg  Hg2       1.0  0.00000  0.76080  0.66256  1.0000
  Hg  Hg3       1.0  0.50000  0.73920  0.16256  1.0000
  Hg  Hg4       1.0  0.50000  0.26080  0.83744  1.0000
