data_image0
_chemical_formula_structural       Cu6Hg8
_chemical_formula_sum              "Cu6 Hg8"
_cell_length_a       7.83435
_cell_length_b       7.83435
_cell_length_c       7.83435
_cell_angle_alpha    60
_cell_angle_beta     60
_cell_angle_gamma    60

_space_group_name_H-M_alt    "P 1"
_space_group_IT_number       1

loop_
  _space_group_symop_operation_xyz
  'x, y, z'

loop_
  _atom_site_type_symbol
  _atom_site_label
  _atom_site_symmetry_multiplicity
  _atom_site_fract_x
  _atom_site_fract_y
  _atom_site_fract_z
  _atom_site_occupancy
  Cu  Cu1       1.0  0.50000  0.50000  0.50000  1.0000
  Cu  Cu2       1.0  0.12500  0.12500  0.62500  1.0000
  Cu  Cu3       1.0  0.12500  0.12500  0.12500  1.0000
  Cu  Cu4       1.0  0.12500  0.62500  0.12500  1.0000
  Cu  Cu5       1.0  0.75000  0.75000  0.75000  1.0000
  Cu  Cu6       1.0  0.62500  0.12500  0.12500  1.0000
  Hg  Hg1       1.0  0.88309  0.88309  0.88309  1.0000
  Hg  Hg2       1.0  0.88309  0.88309  0.35074  1.0000
  Hg  Hg3       1.0  0.36691  0.36691  0.36691  1.0000
  Hg  Hg4       1.0  0.36691  0.36691  0.89926  1.0000
  Hg  Hg5       1.0  0.88309  0.35074  0.88309  1.0000
  Hg  Hg6       1.0  0.36691  0.89926  0.36691  1.0000
  Hg  Hg7       1.0  0.89926  0.36691  0.36691  1.0000
  Hg  Hg8       1.0  0.35074  0.88309  0.88309  1.0000
