data_image0
_chemical_formula_structural       Cu6S16
_chemical_formula_sum              "Cu6 S16"
_cell_length_a       5.78464
_cell_length_b       5.80026
_cell_length_c       12.9146
_cell_angle_alpha    63.7958
_cell_angle_beta     90
_cell_angle_gamma    90

_space_group_name_H-M_alt    "P 1"
_space_group_IT_number       1

loop_
  _space_group_symop_operation_xyz
  'x, y, z'

loop_
  _atom_site_type_symbol
  _atom_site_label
  _atom_site_symmetry_multiplicity
  _atom_site_fract_x
  _atom_site_fract_y
  _atom_site_fract_z
  _atom_site_occupancy
  Cu  Cu1       1.0  0.49032  0.75972  0.74838  1.0000
  Cu  Cu2       1.0  0.50968  0.24028  0.25162  1.0000
  Cu  Cu3       1.0  0.50000  0.00000  0.00000  1.0000
  Cu  Cu4       1.0  0.99032  0.24028  0.75162  1.0000
  Cu  Cu5       1.0  0.00968  0.75972  0.24838  1.0000
  Cu  Cu6       1.0  0.00000  0.00000  0.50000  1.0000
  S   S1        1.0  0.60141  0.70277  0.19656  1.0000
  S   S2        1.0  0.59840  0.19576  0.70273  1.0000
  S   S3        1.0  0.59465  0.65079  0.94830  1.0000
  S   S4        1.0  0.60200  0.14569  0.44998  1.0000
  S   S5        1.0  0.89800  0.14569  0.94998  1.0000
  S   S6        1.0  0.90160  0.19576  0.20273  1.0000
  S   S7        1.0  0.90535  0.65079  0.44830  1.0000
  S   S8        1.0  0.89859  0.70277  0.69656  1.0000
  S   S9        1.0  0.09840  0.80424  0.79727  1.0000
  S   S10       1.0  0.10200  0.85431  0.05002  1.0000
  S   S11       1.0  0.09465  0.34921  0.55170  1.0000
  S   S12       1.0  0.10141  0.29723  0.30344  1.0000
  S   S13       1.0  0.40535  0.34921  0.05170  1.0000
  S   S14       1.0  0.39859  0.29723  0.80344  1.0000
  S   S15       1.0  0.40160  0.80424  0.29727  1.0000
  S   S16       1.0  0.39800  0.85431  0.55002  1.0000
