data_image0
_chemical_formula_structural       Cu2N4
_chemical_formula_sum              "Cu2 N4"
_cell_length_a       2.90538
_cell_length_b       4.21028
_cell_length_c       4.76032
_cell_angle_alpha    90
_cell_angle_beta     90
_cell_angle_gamma    90

_space_group_name_H-M_alt    "P 1"
_space_group_IT_number       1

loop_
  _space_group_symop_operation_xyz
  'x, y, z'

loop_
  _atom_site_type_symbol
  _atom_site_label
  _atom_site_symmetry_multiplicity
  _atom_site_fract_x
  _atom_site_fract_y
  _atom_site_fract_z
  _atom_site_occupancy
  Cu  Cu1       1.0  0.50000  0.50000  0.50000  1.0000
  Cu  Cu2       1.0  0.00000  0.00000  0.00000  1.0000
  N   N1        1.0  0.50000  0.39167  0.91582  1.0000
  N   N2        1.0  0.50000  0.60833  0.08418  1.0000
  N   N3        1.0  0.00000  0.10833  0.41582  1.0000
  N   N4        1.0  0.00000  0.89167  0.58418  1.0000
