data_image0
_chemical_formula_structural       CuSe4
_chemical_formula_sum              "Cu1 Se4"
_cell_length_a       6.10118
_cell_length_b       6.10118
_cell_length_c       6.10118
_cell_angle_alpha    94.299
_cell_angle_beta     94.299
_cell_angle_gamma    148.22

_space_group_name_H-M_alt    "P 1"
_space_group_IT_number       1

loop_
  _space_group_symop_operation_xyz
  'x, y, z'

loop_
  _atom_site_type_symbol
  _atom_site_label
  _atom_site_symmetry_multiplicity
  _atom_site_fract_x
  _atom_site_fract_y
  _atom_site_fract_z
  _atom_site_occupancy
  Cu  Cu1       1.0  0.00000  0.00000  0.00000  1.0000
  Se  Se1       1.0  0.62978  0.71927  0.34905  1.0000
  Se  Se2       1.0  0.37022  0.28073  0.65095  1.0000
  Se  Se3       1.0  0.28073  0.62978  0.91050  1.0000
  Se  Se4       1.0  0.71927  0.37022  0.08950  1.0000
