data_image0
_chemical_formula_structural       Cu3N4
_chemical_formula_sum              "Cu3 N4"
_cell_length_a       5.38311
_cell_length_b       5.38311
_cell_length_c       5.09061
_cell_angle_alpha    62.6472
_cell_angle_beta     62.6472
_cell_angle_gamma    31.5635

_space_group_name_H-M_alt    "P 1"
_space_group_IT_number       1

loop_
  _space_group_symop_operation_xyz
  'x, y, z'

loop_
  _atom_site_type_symbol
  _atom_site_label
  _atom_site_symmetry_multiplicity
  _atom_site_fract_x
  _atom_site_fract_y
  _atom_site_fract_z
  _atom_site_occupancy
  Cu  Cu1       1.0  0.22321  0.22321  0.78668  1.0000
  Cu  Cu2       1.0  0.77679  0.77679  0.21332  1.0000
  Cu  Cu3       1.0  0.50000  0.50000  0.50000  1.0000
  N   N1        1.0  0.85703  0.85703  0.49304  1.0000
  N   N2        1.0  0.14297  0.14297  0.50696  1.0000
  N   N3        1.0  0.37042  0.37042  0.93878  1.0000
  N   N4        1.0  0.62958  0.62958  0.06122  1.0000
