data_image0
_chemical_formula_structural       N4Cu4
_chemical_formula_sum              "N4 Cu4"
_cell_length_a       2.9232
_cell_length_b       4.94413
_cell_length_c       5.05554
_cell_angle_alpha    90
_cell_angle_beta     90
_cell_angle_gamma    90

_space_group_name_H-M_alt    "P 1"
_space_group_IT_number       1

loop_
  _space_group_symop_operation_xyz
  'x, y, z'

loop_
  _atom_site_type_symbol
  _atom_site_label
  _atom_site_symmetry_multiplicity
  _atom_site_fract_x
  _atom_site_fract_y
  _atom_site_fract_z
  _atom_site_occupancy
  N   N1        1.0  0.25000  0.74857  0.08320  1.0000
  N   N2        1.0  0.75000  0.25143  0.91680  1.0000
  N   N3        1.0  0.25000  0.24857  0.41680  1.0000
  N   N4        1.0  0.75000  0.75143  0.58320  1.0000
  Cu  Cu1       1.0  0.25000  0.50139  0.74905  1.0000
  Cu  Cu2       1.0  0.75000  0.49861  0.25095  1.0000
  Cu  Cu3       1.0  0.25000  0.00139  0.75095  1.0000
  Cu  Cu4       1.0  0.75000  0.99861  0.24905  1.0000
