data_image0
_chemical_formula_structural       Cu4N12
_chemical_formula_sum              "Cu4 N12"
_cell_length_a       7.29065
_cell_length_b       7.29065
_cell_length_c       5.17935
_cell_angle_alpha    90
_cell_angle_beta     90
_cell_angle_gamma    134.78

_space_group_name_H-M_alt    "P 1"
_space_group_IT_number       1

loop_
  _space_group_symop_operation_xyz
  'x, y, z'

loop_
  _atom_site_type_symbol
  _atom_site_label
  _atom_site_symmetry_multiplicity
  _atom_site_fract_x
  _atom_site_fract_y
  _atom_site_fract_z
  _atom_site_occupancy
  Cu  Cu1       1.0  0.72270  0.27730  0.00000  1.0000
  Cu  Cu2       1.0  0.27730  0.72270  0.00000  1.0000
  Cu  Cu3       1.0  0.22270  0.77730  0.50000  1.0000
  Cu  Cu4       1.0  0.77730  0.22270  0.50000  1.0000
  N   N1        1.0  0.58294  0.58294  0.05899  1.0000
  N   N2        1.0  0.08294  0.08294  0.44101  1.0000
  N   N3        1.0  0.91706  0.91706  0.55899  1.0000
  N   N4        1.0  0.45858  0.54142  0.50000  1.0000
  N   N5        1.0  0.00001  0.50001  0.75000  1.0000
  N   N6        1.0  0.95858  0.04142  0.00000  1.0000
  N   N7        1.0  0.99999  0.49999  0.25000  1.0000
  N   N8        1.0  0.41706  0.41706  0.94101  1.0000
  N   N9        1.0  0.54142  0.45858  0.50000  1.0000
  N   N10       1.0  0.04142  0.95858  0.00000  1.0000
  N   N11       1.0  0.49999  0.99999  0.25000  1.0000
  N   N12       1.0  0.50001  0.00001  0.75000  1.0000
