data_image0
_chemical_formula_structural       Cu3S4
_chemical_formula_sum              "Cu3 S4"
_cell_length_a       6.50365
_cell_length_b       6.50365
_cell_length_c       5.0838
_cell_angle_alpha    103.589
_cell_angle_beta     103.589
_cell_angle_gamma    32.239

_space_group_name_H-M_alt    "P 1"
_space_group_IT_number       1

loop_
  _space_group_symop_operation_xyz
  'x, y, z'

loop_
  _atom_site_type_symbol
  _atom_site_label
  _atom_site_symmetry_multiplicity
  _atom_site_fract_x
  _atom_site_fract_y
  _atom_site_fract_z
  _atom_site_occupancy
  Cu  Cu1       1.0  0.00000  0.00000  0.00000  1.0000
  Cu  Cu2       1.0  0.80254  0.80254  0.29114  1.0000
  Cu  Cu3       1.0  0.19746  0.19746  0.70886  1.0000
  S   S1        1.0  0.55510  0.55510  0.68121  1.0000
  S   S2        1.0  0.44490  0.44490  0.31879  1.0000
  S   S3        1.0  0.82007  0.82007  0.77659  1.0000
  S   S4        1.0  0.17993  0.17993  0.22341  1.0000
