data_image0
_chemical_formula_structural       CuS2
_chemical_formula_sum              "Cu1 S2"
_cell_length_a       5.40888
_cell_length_b       5.40888
_cell_length_c       5.40888
_cell_angle_alpha    143.985
_cell_angle_beta     143.985
_cell_angle_gamma    51.8503

_space_group_name_H-M_alt    "P 1"
_space_group_IT_number       1

loop_
  _space_group_symop_operation_xyz
  'x, y, z'

loop_
  _atom_site_type_symbol
  _atom_site_label
  _atom_site_symmetry_multiplicity
  _atom_site_fract_x
  _atom_site_fract_y
  _atom_site_fract_z
  _atom_site_occupancy
  Cu  Cu1       1.0  0.00000  0.00000  0.00000  1.0000
  S   S1        1.0  0.39228  0.39228  0.00000  1.0000
  S   S2        1.0  0.60772  0.60772  0.00000  1.0000
