data_image0
_chemical_formula_structural       S6Cu3
_chemical_formula_sum              "S6 Cu3"
_cell_length_a       3.95996
_cell_length_b       4.92574
_cell_length_c       11.0242
_cell_angle_alpha    110.015
_cell_angle_beta     66.6624
_cell_angle_gamma    109.791

_space_group_name_H-M_alt    "P 1"
_space_group_IT_number       1

loop_
  _space_group_symop_operation_xyz
  'x, y, z'

loop_
  _atom_site_type_symbol
  _atom_site_label
  _atom_site_symmetry_multiplicity
  _atom_site_fract_x
  _atom_site_fract_y
  _atom_site_fract_z
  _atom_site_occupancy
  S   S1        1.0  0.34939  0.76916  0.80834  1.0000
  S   S2        1.0  0.60035  0.15408  0.75042  1.0000
  S   S3        1.0  0.91785  0.41136  0.08726  1.0000
  S   S4        1.0  0.53546  0.88842  0.46987  1.0000
  S   S5        1.0  0.16908  0.50113  0.51455  1.0000
  S   S6        1.0  0.46806  0.02492  0.13931  1.0000
  Cu  Cu1       1.0  0.30427  0.30574  0.64749  1.0000
  Cu  Cu2       1.0  0.52101  0.46308  0.29731  1.0000
  Cu  Cu3       1.0  0.00954  0.85710  0.03544  1.0000
