data_image0
_chemical_formula_structural       N8Cu4
_chemical_formula_sum              "N8 Cu4"
_cell_length_a       3.87524
_cell_length_b       5.96682
_cell_length_c       5.7126
_cell_angle_alpha    58.5267
_cell_angle_beta     90
_cell_angle_gamma    90

_space_group_name_H-M_alt    "P 1"
_space_group_IT_number       1

loop_
  _space_group_symop_operation_xyz
  'x, y, z'

loop_
  _atom_site_type_symbol
  _atom_site_label
  _atom_site_symmetry_multiplicity
  _atom_site_fract_x
  _atom_site_fract_y
  _atom_site_fract_z
  _atom_site_occupancy
  N   N1        1.0  0.12092  0.04034  0.41878  1.0000
  N   N2        1.0  0.62092  0.95966  0.08122  1.0000
  N   N3        1.0  0.87908  0.95966  0.58122  1.0000
  N   N4        1.0  0.37908  0.04034  0.91878  1.0000
  N   N5        1.0  0.87877  0.45980  0.58097  1.0000
  N   N6        1.0  0.37877  0.54020  0.91903  1.0000
  N   N7        1.0  0.12123  0.54020  0.41903  1.0000
  N   N8        1.0  0.62123  0.45980  0.08097  1.0000
  Cu  Cu1       1.0  0.00045  0.25004  0.99973  1.0000
  Cu  Cu2       1.0  0.50045  0.74996  0.50027  1.0000
  Cu  Cu3       1.0  0.99955  0.74996  0.00027  1.0000
  Cu  Cu4       1.0  0.49955  0.25004  0.49973  1.0000
