data_image0
_chemical_formula_structural       CuN2
_chemical_formula_sum              "Cu1 N2"
_cell_length_a       3.22157
_cell_length_b       3.22157
_cell_length_c       3.87586
_cell_angle_alpha    87.4988
_cell_angle_beta     87.4988
_cell_angle_gamma    56.6431

_space_group_name_H-M_alt    "P 1"
_space_group_IT_number       1

loop_
  _space_group_symop_operation_xyz
  'x, y, z'

loop_
  _atom_site_type_symbol
  _atom_site_label
  _atom_site_symmetry_multiplicity
  _atom_site_fract_x
  _atom_site_fract_y
  _atom_site_fract_z
  _atom_site_occupancy
  Cu  Cu1       1.0  0.66645  0.33355  0.50000  1.0000
  N   N1        1.0  0.16990  0.83635  0.84611  1.0000
  N   N2        1.0  0.16365  0.83010  0.15389  1.0000
