data_image0
_chemical_formula_structural       N10Cu6
_chemical_formula_sum              "N10 Cu6"
_cell_length_a       6.45091
_cell_length_b       6.45091
_cell_length_c       6.45091
_cell_angle_alpha    122.8
_cell_angle_beta     122.8
_cell_angle_gamma    85.215

_space_group_name_H-M_alt    "P 1"
_space_group_IT_number       1

loop_
  _space_group_symop_operation_xyz
  'x, y, z'

loop_
  _atom_site_type_symbol
  _atom_site_label
  _atom_site_symmetry_multiplicity
  _atom_site_fract_x
  _atom_site_fract_y
  _atom_site_fract_z
  _atom_site_occupancy
  N   N1        1.0  0.40803  0.50199  0.50000  1.0000
  N   N2        1.0  0.59197  0.49801  0.50000  1.0000
  N   N3        1.0  0.50000  0.50000  1.00000  1.0000
  N   N4        1.0  0.00000  0.00000  0.00000  1.0000
  N   N5        1.0  0.00199  0.90803  0.50000  1.0000
  N   N6        1.0  0.90803  0.40803  0.90604  1.0000
  N   N7        1.0  0.50199  0.00199  0.09396  1.0000
  N   N8        1.0  0.49801  0.99801  0.90604  1.0000
  N   N9        1.0  0.09197  0.59197  0.09396  1.0000
  N   N10       1.0  0.99801  0.09197  0.50000  1.0000
  Cu  Cu1       1.0  0.77123  0.72877  0.50000  1.0000
  Cu  Cu2       1.0  0.72877  0.22877  0.95753  1.0000
  Cu  Cu3       1.0  0.27123  0.77123  0.04247  1.0000
  Cu  Cu4       1.0  0.22877  0.27123  0.50000  1.0000
  Cu  Cu5       1.0  0.25000  0.25000  0.00000  1.0000
  Cu  Cu6       1.0  0.75000  0.75000  1.00000  1.0000
