data_image0
_chemical_formula_structural       S4Cu4
_chemical_formula_sum              "S4 Cu4"
_cell_length_a       3.57474
_cell_length_b       5.32108
_cell_length_c       6.24855
_cell_angle_alpha    90
_cell_angle_beta     90
_cell_angle_gamma    90

_space_group_name_H-M_alt    "P 1"
_space_group_IT_number       1

loop_
  _space_group_symop_operation_xyz
  'x, y, z'

loop_
  _atom_site_type_symbol
  _atom_site_label
  _atom_site_symmetry_multiplicity
  _atom_site_fract_x
  _atom_site_fract_y
  _atom_site_fract_z
  _atom_site_occupancy
  S   S1        1.0  0.25000  0.74953  0.08466  1.0000
  S   S2        1.0  0.75000  0.25047  0.91534  1.0000
  S   S3        1.0  0.25000  0.24953  0.41534  1.0000
  S   S4        1.0  0.75000  0.75047  0.58466  1.0000
  Cu  Cu1       1.0  0.25000  0.50242  0.75003  1.0000
  Cu  Cu2       1.0  0.75000  0.49758  0.24997  1.0000
  Cu  Cu3       1.0  0.25000  0.00242  0.74997  1.0000
  Cu  Cu4       1.0  0.75000  0.99758  0.25003  1.0000
