data_image0
_chemical_formula_structural       S6Cu4
_chemical_formula_sum              "S6 Cu4"
_cell_length_a       6.53636
_cell_length_b       6.53636
_cell_length_c       9.38247
_cell_angle_alpha    51.9068
_cell_angle_beta     51.9068
_cell_angle_gamma    33.1021

_space_group_name_H-M_alt    "P 1"
_space_group_IT_number       1

loop_
  _space_group_symop_operation_xyz
  'x, y, z'

loop_
  _atom_site_type_symbol
  _atom_site_label
  _atom_site_symmetry_multiplicity
  _atom_site_fract_x
  _atom_site_fract_y
  _atom_site_fract_z
  _atom_site_occupancy
  S   S1        1.0  0.08968  0.08968  0.37370  1.0000
  S   S2        1.0  0.91032  0.91032  0.62630  1.0000
  S   S3        1.0  0.37546  0.37546  0.33854  1.0000
  S   S4        1.0  0.62454  0.62454  0.66146  1.0000
  S   S5        1.0  0.84085  0.84085  0.03919  1.0000
  S   S6        1.0  0.15915  0.15915  0.96081  1.0000
  Cu  Cu1       1.0  0.38847  0.38847  0.85651  1.0000
  Cu  Cu2       1.0  0.61153  0.61153  0.14349  1.0000
  Cu  Cu3       1.0  0.23999  0.23999  0.65968  1.0000
  Cu  Cu4       1.0  0.76001  0.76001  0.34032  1.0000
