data_image0
_chemical_formula_structural       CuS3
_chemical_formula_sum              "Cu1 S3"
_cell_length_a       6.28441
_cell_length_b       6.28441
_cell_length_c       6.28442
_cell_angle_alpha    32.1997
_cell_angle_beta     32.1997
_cell_angle_gamma    32.1997

_space_group_name_H-M_alt    "P 1"
_space_group_IT_number       1

loop_
  _space_group_symop_operation_xyz
  'x, y, z'

loop_
  _atom_site_type_symbol
  _atom_site_label
  _atom_site_symmetry_multiplicity
  _atom_site_fract_x
  _atom_site_fract_y
  _atom_site_fract_z
  _atom_site_occupancy
  Cu  Cu1       1.0  0.00000  0.00000  0.00000  1.0000
  S   S1        1.0  0.25866  0.25866  0.25866  1.0000
  S   S2        1.0  0.50000  0.50000  0.50000  1.0000
  S   S3        1.0  0.74134  0.74134  0.74134  1.0000
