data_image0
_chemical_formula_structural       Cu4I8
_chemical_formula_sum              "Cu4 I8"
_cell_length_a       5.37353
_cell_length_b       6.89752
_cell_length_c       10.7136
_cell_angle_alpha    90
_cell_angle_beta     90
_cell_angle_gamma    90

_space_group_name_H-M_alt    "P 1"
_space_group_IT_number       1

loop_
  _space_group_symop_operation_xyz
  'x, y, z'

loop_
  _atom_site_type_symbol
  _atom_site_label
  _atom_site_symmetry_multiplicity
  _atom_site_fract_x
  _atom_site_fract_y
  _atom_site_fract_z
  _atom_site_occupancy
  Cu  Cu1       1.0  0.75000  0.91598  0.86849  1.0000
  Cu  Cu2       1.0  0.75000  0.41598  0.63151  1.0000
  Cu  Cu3       1.0  0.25000  0.08402  0.13151  1.0000
  Cu  Cu4       1.0  0.25000  0.58402  0.36849  1.0000
  I   I1        1.0  0.75000  0.48335  0.39299  1.0000
  I   I2        1.0  0.75000  0.98335  0.10701  1.0000
  I   I3        1.0  0.25000  0.51665  0.60701  1.0000
  I   I4        1.0  0.25000  0.01665  0.89299  1.0000
  I   I5        1.0  0.75000  0.52444  0.85999  1.0000
  I   I6        1.0  0.75000  0.02444  0.64001  1.0000
  I   I7        1.0  0.25000  0.47556  0.14001  1.0000
  I   I8        1.0  0.25000  0.97556  0.35999  1.0000
