data_image0
_chemical_formula_structural       Cu8S4
_chemical_formula_sum              "Cu8 S4"
_cell_length_a       4.29923
_cell_length_b       6.68936
_cell_length_c       6.50684
_cell_angle_alpha    90
_cell_angle_beta     90
_cell_angle_gamma    90

_space_group_name_H-M_alt    "P 1"
_space_group_IT_number       1

loop_
  _space_group_symop_operation_xyz
  'x, y, z'

loop_
  _atom_site_type_symbol
  _atom_site_label
  _atom_site_symmetry_multiplicity
  _atom_site_fract_x
  _atom_site_fract_y
  _atom_site_fract_z
  _atom_site_occupancy
  Cu  Cu1       1.0  0.35429  0.08026  0.84106  1.0000
  Cu  Cu2       1.0  0.85429  0.91974  0.65894  1.0000
  Cu  Cu3       1.0  0.14571  0.58026  0.65894  1.0000
  Cu  Cu4       1.0  0.64571  0.41974  0.84106  1.0000
  Cu  Cu5       1.0  0.35429  0.58026  0.15894  1.0000
  Cu  Cu6       1.0  0.85429  0.41974  0.34106  1.0000
  Cu  Cu7       1.0  0.14571  0.08026  0.34106  1.0000
  Cu  Cu8       1.0  0.64571  0.91974  0.15894  1.0000
  S   S1        1.0  0.50000  0.75000  0.84711  1.0000
  S   S2        1.0  0.00000  0.25000  0.65289  1.0000
  S   S3        1.0  0.50000  0.25000  0.15289  1.0000
  S   S4        1.0  0.00000  0.75000  0.34711  1.0000
