data_image0
_chemical_formula_structural       Cu4N8
_chemical_formula_sum              "Cu4 N8"
_cell_length_a       5.98587
_cell_length_b       5.98587
_cell_length_c       5.98587
_cell_angle_alpha    60
_cell_angle_beta     60
_cell_angle_gamma    60

_space_group_name_H-M_alt    "P 1"
_space_group_IT_number       1

loop_
  _space_group_symop_operation_xyz
  'x, y, z'

loop_
  _atom_site_type_symbol
  _atom_site_label
  _atom_site_symmetry_multiplicity
  _atom_site_fract_x
  _atom_site_fract_y
  _atom_site_fract_z
  _atom_site_occupancy
  Cu  Cu1       1.0  0.62500  0.62500  0.62500  1.0000
  Cu  Cu2       1.0  0.12500  0.62500  0.62500  1.0000
  Cu  Cu3       1.0  0.62500  0.12500  0.62500  1.0000
  Cu  Cu4       1.0  0.62500  0.62500  0.12500  1.0000
  N   N1        1.0  0.85088  0.44736  0.85088  1.0000
  N   N2        1.0  0.39912  0.39912  0.80264  1.0000
  N   N3        1.0  0.80264  0.39912  0.39912  1.0000
  N   N4        1.0  0.39912  0.39912  0.39912  1.0000
  N   N5        1.0  0.44736  0.85088  0.85088  1.0000
  N   N6        1.0  0.85088  0.85088  0.85088  1.0000
  N   N7        1.0  0.85088  0.85088  0.44736  1.0000
  N   N8        1.0  0.39912  0.80264  0.39912  1.0000
