data_image0
_chemical_formula_structural       Cu4N4
_chemical_formula_sum              "Cu4 N4"
_cell_length_a       4.16646
_cell_length_b       4.16646
_cell_length_c       4.16646
_cell_angle_alpha    90
_cell_angle_beta     90
_cell_angle_gamma    90

_space_group_name_H-M_alt    "P 1"
_space_group_IT_number       1

loop_
  _space_group_symop_operation_xyz
  'x, y, z'

loop_
  _atom_site_type_symbol
  _atom_site_label
  _atom_site_symmetry_multiplicity
  _atom_site_fract_x
  _atom_site_fract_y
  _atom_site_fract_z
  _atom_site_occupancy
  Cu  Cu1       1.0  0.74935  0.75065  0.24935  1.0000
  Cu  Cu2       1.0  0.75065  0.24935  0.74935  1.0000
  Cu  Cu3       1.0  0.24935  0.74935  0.75065  1.0000
  Cu  Cu4       1.0  0.25065  0.25065  0.25065  1.0000
  N   N1        1.0  0.25066  0.24934  0.75066  1.0000
  N   N2        1.0  0.24934  0.75066  0.25066  1.0000
  N   N3        1.0  0.75066  0.25066  0.24934  1.0000
  N   N4        1.0  0.74934  0.74934  0.74934  1.0000
