data_image0
_chemical_formula_structural       S8Cu4
_chemical_formula_sum              "S8 Cu4"
_cell_length_a       5.8877
_cell_length_b       5.91271
_cell_length_c       5.91403
_cell_angle_alpha    75.2857
_cell_angle_beta     90
_cell_angle_gamma    90

_space_group_name_H-M_alt    "P 1"
_space_group_IT_number       1

loop_
  _space_group_symop_operation_xyz
  'x, y, z'

loop_
  _atom_site_type_symbol
  _atom_site_label
  _atom_site_symmetry_multiplicity
  _atom_site_fract_x
  _atom_site_fract_y
  _atom_site_fract_z
  _atom_site_occupancy
  S   S1        1.0  0.10314  0.16317  0.16204  1.0000
  S   S2        1.0  0.60314  0.83683  0.33796  1.0000
  S   S3        1.0  0.89686  0.83683  0.83796  1.0000
  S   S4        1.0  0.39686  0.16317  0.66204  1.0000
  S   S5        1.0  0.60226  0.33745  0.83618  1.0000
  S   S6        1.0  0.10226  0.66255  0.66382  1.0000
  S   S7        1.0  0.39774  0.66255  0.16382  1.0000
  S   S8        1.0  0.89774  0.33745  0.33618  1.0000
  Cu  Cu1       1.0  0.50094  0.24951  0.24916  1.0000
  Cu  Cu2       1.0  0.00094  0.75049  0.25084  1.0000
  Cu  Cu3       1.0  0.49906  0.75049  0.75084  1.0000
  Cu  Cu4       1.0  0.99906  0.24951  0.74916  1.0000
