data_image0
_chemical_formula_structural       Cu3Se4
_chemical_formula_sum              "Cu3 Se4"
_cell_length_a       6.86376
_cell_length_b       6.86376
_cell_length_c       5.38561
_cell_angle_alpha    101.967
_cell_angle_beta     101.967
_cell_angle_gamma    31.7291

_space_group_name_H-M_alt    "P 1"
_space_group_IT_number       1

loop_
  _space_group_symop_operation_xyz
  'x, y, z'

loop_
  _atom_site_type_symbol
  _atom_site_label
  _atom_site_symmetry_multiplicity
  _atom_site_fract_x
  _atom_site_fract_y
  _atom_site_fract_z
  _atom_site_occupancy
  Cu  Cu1       1.0  0.00000  0.00000  0.00000  1.0000
  Cu  Cu2       1.0  0.80554  0.80554  0.28285  1.0000
  Cu  Cu3       1.0  0.19446  0.19446  0.71715  1.0000
  Se  Se1       1.0  0.55885  0.55885  0.70230  1.0000
  Se  Se2       1.0  0.44115  0.44115  0.29770  1.0000
  Se  Se3       1.0  0.81938  0.81938  0.76919  1.0000
  Se  Se4       1.0  0.18062  0.18062  0.23081  1.0000
