data_image0
_chemical_formula_structural       CuN4
_chemical_formula_sum              "Cu1 N4"
_cell_length_a       5.12824
_cell_length_b       5.12824
_cell_length_c       5.12824
_cell_angle_alpha    92.6901
_cell_angle_beta     92.6901
_cell_angle_gamma    154.976

_space_group_name_H-M_alt    "P 1"
_space_group_IT_number       1

loop_
  _space_group_symop_operation_xyz
  'x, y, z'

loop_
  _atom_site_type_symbol
  _atom_site_label
  _atom_site_symmetry_multiplicity
  _atom_site_fract_x
  _atom_site_fract_y
  _atom_site_fract_z
  _atom_site_occupancy
  Cu  Cu1       1.0  0.00000  0.00000  0.00000  1.0000
  N   N1        1.0  0.78682  0.78628  0.57310  1.0000
  N   N2        1.0  0.21318  0.21372  0.42690  1.0000
  N   N3        1.0  0.21372  0.78682  0.00054  1.0000
  N   N4        1.0  0.78628  0.21318  0.99946  1.0000
