data_image0
_chemical_formula_structural       Cu2N6
_chemical_formula_sum              "Cu2 N6"
_cell_length_a       3.79656
_cell_length_b       5.09983
_cell_length_c       5.34814
_cell_angle_alpha    90
_cell_angle_beta     90
_cell_angle_gamma    90

_space_group_name_H-M_alt    "P 1"
_space_group_IT_number       1

loop_
  _space_group_symop_operation_xyz
  'x, y, z'

loop_
  _atom_site_type_symbol
  _atom_site_label
  _atom_site_symmetry_multiplicity
  _atom_site_fract_x
  _atom_site_fract_y
  _atom_site_fract_z
  _atom_site_occupancy
  Cu  Cu1       1.0  0.50000  0.57590  0.50000  1.0000
  Cu  Cu2       1.0  0.00000  0.42410  0.00000  1.0000
  N   N1        1.0  0.50000  0.06074  0.88728  1.0000
  N   N2        1.0  0.50000  0.06074  0.11272  1.0000
  N   N3        1.0  0.00000  0.93926  0.61272  1.0000
  N   N4        1.0  0.00000  0.93926  0.38728  1.0000
  N   N5        1.0  0.00000  0.64561  0.50000  1.0000
  N   N6        1.0  0.50000  0.35439  0.00000  1.0000
