data_image0
_chemical_formula_structural       Se6Cu4
_chemical_formula_sum              "Se6 Cu4"
_cell_length_a       6.81031
_cell_length_b       6.81031
_cell_length_c       9.99089
_cell_angle_alpha    52.4007
_cell_angle_beta     52.4007
_cell_angle_gamma    32.7899

_space_group_name_H-M_alt    "P 1"
_space_group_IT_number       1

loop_
  _space_group_symop_operation_xyz
  'x, y, z'

loop_
  _atom_site_type_symbol
  _atom_site_label
  _atom_site_symmetry_multiplicity
  _atom_site_fract_x
  _atom_site_fract_y
  _atom_site_fract_z
  _atom_site_occupancy
  Se  Se1       1.0  0.10030  0.10030  0.35878  1.0000
  Se  Se2       1.0  0.89970  0.89970  0.64122  1.0000
  Se  Se3       1.0  0.37452  0.37452  0.34238  1.0000
  Se  Se4       1.0  0.62548  0.62548  0.65762  1.0000
  Se  Se5       1.0  0.85281  0.85281  0.03149  1.0000
  Se  Se6       1.0  0.14719  0.14719  0.96851  1.0000
  Cu  Cu1       1.0  0.38528  0.38528  0.85229  1.0000
  Cu  Cu2       1.0  0.61472  0.61472  0.14771  1.0000
  Cu  Cu3       1.0  0.24656  0.24656  0.65890  1.0000
  Cu  Cu4       1.0  0.75344  0.75344  0.34110  1.0000
