data_image0
_chemical_formula_structural       Cu2Tl4
_chemical_formula_sum              "Cu2 Tl4"
_cell_length_a       5.70226
_cell_length_b       5.70226
_cell_length_c       5.70226
_cell_angle_alpha    104.204
_cell_angle_beta     104.204
_cell_angle_gamma    120.614

_space_group_name_H-M_alt    "P 1"
_space_group_IT_number       1

loop_
  _space_group_symop_operation_xyz
  'x, y, z'

loop_
  _atom_site_type_symbol
  _atom_site_label
  _atom_site_symmetry_multiplicity
  _atom_site_fract_x
  _atom_site_fract_y
  _atom_site_fract_z
  _atom_site_occupancy
  Cu  Cu1       1.0  0.75000  0.75000  0.00000  1.0000
  Cu  Cu2       1.0  0.25000  0.25000  0.00000  1.0000
  Tl  Tl1       1.0  0.66399  0.16399  0.82797  1.0000
  Tl  Tl2       1.0  0.16399  0.33601  0.50000  1.0000
  Tl  Tl3       1.0  0.83601  0.66399  0.50000  1.0000
  Tl  Tl4       1.0  0.33601  0.83601  0.17203  1.0000
