data_image0
_chemical_formula_structural       Cu8Tl8
_chemical_formula_sum              "Cu8 Tl8"
_cell_length_a       6.7178
_cell_length_b       6.7178
_cell_length_c       8.01273
_cell_angle_alpha    90
_cell_angle_beta     90
_cell_angle_gamma    90

_space_group_name_H-M_alt    "P 1"
_space_group_IT_number       1

loop_
  _space_group_symop_operation_xyz
  'x, y, z'

loop_
  _atom_site_type_symbol
  _atom_site_label
  _atom_site_symmetry_multiplicity
  _atom_site_fract_x
  _atom_site_fract_y
  _atom_site_fract_z
  _atom_site_occupancy
  Cu  Cu1       1.0  0.64309  0.61248  0.00000  1.0000
  Cu  Cu2       1.0  0.38752  0.64309  0.50000  1.0000
  Cu  Cu3       1.0  0.61248  0.35691  0.50000  1.0000
  Cu  Cu4       1.0  0.35691  0.38752  0.00000  1.0000
  Cu  Cu5       1.0  0.50000  0.00000  0.50000  1.0000
  Cu  Cu6       1.0  0.00000  0.50000  0.00000  1.0000
  Cu  Cu7       1.0  0.00000  0.00000  0.75000  1.0000
  Cu  Cu8       1.0  0.00000  0.00000  0.25000  1.0000
  Tl  Tl1       1.0  0.19364  0.33324  0.69319  1.0000
  Tl  Tl2       1.0  0.66676  0.19364  0.19319  1.0000
  Tl  Tl3       1.0  0.33324  0.80636  0.19319  1.0000
  Tl  Tl4       1.0  0.80636  0.66676  0.69319  1.0000
  Tl  Tl5       1.0  0.80636  0.66676  0.30681  1.0000
  Tl  Tl6       1.0  0.33324  0.80636  0.80681  1.0000
  Tl  Tl7       1.0  0.66676  0.19364  0.80681  1.0000
  Tl  Tl8       1.0  0.19364  0.33324  0.30681  1.0000
