data_image0
_chemical_formula_structural       Se3Cu3
_chemical_formula_sum              "Se3 Cu3"
_cell_length_a       3.62724
_cell_length_b       3.62724
_cell_length_c       8.8805
_cell_angle_alpha    90
_cell_angle_beta     90
_cell_angle_gamma    120

_space_group_name_H-M_alt    "P 1"
_space_group_IT_number       1

loop_
  _space_group_symop_operation_xyz
  'x, y, z'

loop_
  _atom_site_type_symbol
  _atom_site_label
  _atom_site_symmetry_multiplicity
  _atom_site_fract_x
  _atom_site_fract_y
  _atom_site_fract_z
  _atom_site_occupancy
  Se  Se1       1.0  0.34024  0.34024  0.00000  1.0000
  Se  Se2       1.0  0.00000  0.65976  0.66667  1.0000
  Se  Se3       1.0  0.65976  0.00000  0.33333  1.0000
  Cu  Cu1       1.0  0.33129  0.33129  0.50000  1.0000
  Cu  Cu2       1.0  0.00000  0.66871  0.16667  1.0000
  Cu  Cu3       1.0  0.66871  0.00000  0.83333  1.0000
