data_image0
_chemical_formula_structural       Cu3Tl4
_chemical_formula_sum              "Cu3 Tl4"
_cell_length_a       7.03586
_cell_length_b       7.03586
_cell_length_c       6.85829
_cell_angle_alpha    57.6816
_cell_angle_beta     57.6816
_cell_angle_gamma    34.9005

_space_group_name_H-M_alt    "P 1"
_space_group_IT_number       1

loop_
  _space_group_symop_operation_xyz
  'x, y, z'

loop_
  _atom_site_type_symbol
  _atom_site_label
  _atom_site_symmetry_multiplicity
  _atom_site_fract_x
  _atom_site_fract_y
  _atom_site_fract_z
  _atom_site_occupancy
  Cu  Cu1       1.0  0.00000  0.00000  0.00000  1.0000
  Cu  Cu2       1.0  0.22438  0.22438  0.79172  1.0000
  Cu  Cu3       1.0  0.77562  0.77562  0.20828  1.0000
  Tl  Tl1       1.0  0.13392  0.13392  0.50157  1.0000
  Tl  Tl2       1.0  0.86608  0.86608  0.49843  1.0000
  Tl  Tl3       1.0  0.60160  0.60160  0.11028  1.0000
  Tl  Tl4       1.0  0.39840  0.39840  0.88972  1.0000
