data_image0
_chemical_formula_structural       Cu2Tl4
_chemical_formula_sum              "Cu2 Tl4"
_cell_length_a       3.39885
_cell_length_b       3.39885
_cell_length_c       24.4972
_cell_angle_alpha    90
_cell_angle_beta     90
_cell_angle_gamma    120

_space_group_name_H-M_alt    "P 1"
_space_group_IT_number       1

loop_
  _space_group_symop_operation_xyz
  'x, y, z'

loop_
  _atom_site_type_symbol
  _atom_site_label
  _atom_site_symmetry_multiplicity
  _atom_site_fract_x
  _atom_site_fract_y
  _atom_site_fract_z
  _atom_site_occupancy
  Cu  Cu1       1.0  0.66667  0.33333  0.14492  1.0000
  Cu  Cu2       1.0  0.33333  0.66667  0.85508  1.0000
  Tl  Tl1       1.0  0.33333  0.66667  0.23358  1.0000
  Tl  Tl2       1.0  0.66667  0.33333  0.94114  1.0000
  Tl  Tl3       1.0  0.33333  0.66667  0.05886  1.0000
  Tl  Tl4       1.0  0.66667  0.33333  0.76642  1.0000
