data_image0
_chemical_formula_structural       Se4Cu2
_chemical_formula_sum              "Se4 Cu2"
_cell_length_a       6.95208
_cell_length_b       5.17471
_cell_length_c       5.99812
_cell_angle_alpha    76.5644
_cell_angle_beta     46.3832
_cell_angle_gamma    57.0524

_space_group_name_H-M_alt    "P 1"
_space_group_IT_number       1

loop_
  _space_group_symop_operation_xyz
  'x, y, z'

loop_
  _atom_site_type_symbol
  _atom_site_label
  _atom_site_symmetry_multiplicity
  _atom_site_fract_x
  _atom_site_fract_y
  _atom_site_fract_z
  _atom_site_occupancy
  Se  Se1       1.0  0.52476  0.97524  0.52476  1.0000
  Se  Se2       1.0  0.97524  0.52476  0.97524  1.0000
  Se  Se3       1.0  0.72524  0.27476  0.72524  1.0000
  Se  Se4       1.0  0.27476  0.72524  0.27476  1.0000
  Cu  Cu1       1.0  0.75000  0.75000  0.75000  1.0000
  Cu  Cu2       1.0  0.50000  0.50000  0.50000  1.0000
