data_image0
_chemical_formula_structural       CuTl3
_chemical_formula_sum              "Cu1 Tl3"
_cell_length_a       9.65313
_cell_length_b       9.65313
_cell_length_c       9.65313
_cell_angle_alpha    21.5359
_cell_angle_beta     21.5359
_cell_angle_gamma    21.5359

_space_group_name_H-M_alt    "P 1"
_space_group_IT_number       1

loop_
  _space_group_symop_operation_xyz
  'x, y, z'

loop_
  _atom_site_type_symbol
  _atom_site_label
  _atom_site_symmetry_multiplicity
  _atom_site_fract_x
  _atom_site_fract_y
  _atom_site_fract_z
  _atom_site_occupancy
  Cu  Cu1       1.0  0.00000  0.00000  0.00000  1.0000
  Tl  Tl1       1.0  0.26707  0.26707  0.26707  1.0000
  Tl  Tl2       1.0  0.50000  0.50000  0.50000  1.0000
  Tl  Tl3       1.0  0.73293  0.73293  0.73293  1.0000
