data_image0
_chemical_formula_structural       Cu2Se6
_chemical_formula_sum              "Cu2 Se6"
_cell_length_a       7.3041
_cell_length_b       7.3041
_cell_length_c       3.46129
_cell_angle_alpha    90
_cell_angle_beta     90
_cell_angle_gamma    120

_space_group_name_H-M_alt    "P 1"
_space_group_IT_number       1

loop_
  _space_group_symop_operation_xyz
  'x, y, z'

loop_
  _atom_site_type_symbol
  _atom_site_label
  _atom_site_symmetry_multiplicity
  _atom_site_fract_x
  _atom_site_fract_y
  _atom_site_fract_z
  _atom_site_occupancy
  Cu  Cu1       1.0  0.33333  0.66667  0.75000  1.0000
  Cu  Cu2       1.0  0.66667  0.33333  0.25000  1.0000
  Se  Se1       1.0  0.18019  0.36039  0.25000  1.0000
  Se  Se2       1.0  0.63961  0.81981  0.25000  1.0000
  Se  Se3       1.0  0.18019  0.81981  0.25000  1.0000
  Se  Se4       1.0  0.81981  0.63961  0.75000  1.0000
  Se  Se5       1.0  0.36039  0.18019  0.75000  1.0000
  Se  Se6       1.0  0.81981  0.18019  0.75000  1.0000
