data_image0
_chemical_formula_structural       Se9Cu13
_chemical_formula_sum              "Se9 Cu13"
_cell_length_a       7.80195
_cell_length_b       7.80195
_cell_length_c       6.89811
_cell_angle_alpha    90
_cell_angle_beta     90
_cell_angle_gamma    120

_space_group_name_H-M_alt    "P 1"
_space_group_IT_number       1

loop_
  _space_group_symop_operation_xyz
  'x, y, z'

loop_
  _atom_site_type_symbol
  _atom_site_label
  _atom_site_symmetry_multiplicity
  _atom_site_fract_x
  _atom_site_fract_y
  _atom_site_fract_z
  _atom_site_occupancy
  Se  Se1       1.0  0.00000  0.00000  0.50000  1.0000
  Se  Se2       1.0  0.33333  0.66667  0.66975  1.0000
  Se  Se3       1.0  0.66667  0.33333  0.33025  1.0000
  Se  Se4       1.0  0.19301  0.80699  0.19849  1.0000
  Se  Se5       1.0  0.19301  0.38602  0.19849  1.0000
  Se  Se6       1.0  0.61398  0.80699  0.19849  1.0000
  Se  Se7       1.0  0.38602  0.19301  0.80151  1.0000
  Se  Se8       1.0  0.80699  0.61398  0.80151  1.0000
  Se  Se9       1.0  0.80699  0.19301  0.80151  1.0000
  Cu  Cu1       1.0  0.00000  0.00000  0.00000  1.0000
  Cu  Cu2       1.0  0.50000  0.00000  0.00000  1.0000
  Cu  Cu3       1.0  1.00000  0.50000  0.00000  1.0000
  Cu  Cu4       1.0  0.50000  0.50000  0.00000  1.0000
  Cu  Cu5       1.0  0.50000  0.00000  0.50000  1.0000
  Cu  Cu6       1.0  1.00000  0.50000  0.50000  1.0000
  Cu  Cu7       1.0  0.50000  0.50000  0.50000  1.0000
  Cu  Cu8       1.0  0.15096  0.84904  0.73194  1.0000
  Cu  Cu9       1.0  0.15096  0.30191  0.73194  1.0000
  Cu  Cu10      1.0  0.69809  0.84904  0.73194  1.0000
  Cu  Cu11      1.0  0.30191  0.15096  0.26806  1.0000
  Cu  Cu12      1.0  0.84904  0.69809  0.26806  1.0000
  Cu  Cu13      1.0  0.84904  0.15096  0.26806  1.0000
