data_image0
_chemical_formula_structural       Cu2Tl2
_chemical_formula_sum              "Cu2 Tl2"
_cell_length_a       5.49359
_cell_length_b       5.49359
_cell_length_c       4.06826
_cell_angle_alpha    90
_cell_angle_beta     90
_cell_angle_gamma    138.858

_space_group_name_H-M_alt    "P 1"
_space_group_IT_number       1

loop_
  _space_group_symop_operation_xyz
  'x, y, z'

loop_
  _atom_site_type_symbol
  _atom_site_label
  _atom_site_symmetry_multiplicity
  _atom_site_fract_x
  _atom_site_fract_y
  _atom_site_fract_z
  _atom_site_occupancy
  Cu  Cu1       1.0  0.07157  0.92843  0.75000  1.0000
  Cu  Cu2       1.0  0.92843  0.07157  0.25000  1.0000
  Tl  Tl1       1.0  0.35212  0.64788  0.75000  1.0000
  Tl  Tl2       1.0  0.64788  0.35212  0.25000  1.0000
