data_image0
_chemical_formula_structural       Tl4Cu4
_chemical_formula_sum              "Tl4 Cu4"
_cell_length_a       4.05797
_cell_length_b       6.8201
_cell_length_c       5.79363
_cell_angle_alpha    90
_cell_angle_beta     90
_cell_angle_gamma    90

_space_group_name_H-M_alt    "P 1"
_space_group_IT_number       1

loop_
  _space_group_symop_operation_xyz
  'x, y, z'

loop_
  _atom_site_type_symbol
  _atom_site_label
  _atom_site_symmetry_multiplicity
  _atom_site_fract_x
  _atom_site_fract_y
  _atom_site_fract_z
  _atom_site_occupancy
  Tl  Tl1       1.0  0.75000  0.82900  0.62272  1.0000
  Tl  Tl2       1.0  0.25000  0.17100  0.37728  1.0000
  Tl  Tl3       1.0  0.75000  0.32900  0.87728  1.0000
  Tl  Tl4       1.0  0.25000  0.67100  0.12272  1.0000
  Cu  Cu1       1.0  0.75000  0.97223  0.12842  1.0000
  Cu  Cu2       1.0  0.25000  0.02777  0.87158  1.0000
  Cu  Cu3       1.0  0.75000  0.47223  0.37158  1.0000
  Cu  Cu4       1.0  0.25000  0.52777  0.62842  1.0000
