data_image0
_chemical_formula_structural       Tl10Cu6
_chemical_formula_sum              "Tl10 Cu6"
_cell_length_a       8.81511
_cell_length_b       8.81511
_cell_length_c       8.81511
_cell_angle_alpha    132.448
_cell_angle_beta     132.448
_cell_angle_gamma    69.5222

_space_group_name_H-M_alt    "P 1"
_space_group_IT_number       1

loop_
  _space_group_symop_operation_xyz
  'x, y, z'

loop_
  _atom_site_type_symbol
  _atom_site_label
  _atom_site_symmetry_multiplicity
  _atom_site_fract_x
  _atom_site_fract_y
  _atom_site_fract_z
  _atom_site_occupancy
  Tl  Tl1       1.0  0.51952  0.68051  0.50000  1.0000
  Tl  Tl2       1.0  0.48048  0.31949  0.50000  1.0000
  Tl  Tl3       1.0  0.50000  0.50000  0.00000  1.0000
  Tl  Tl4       1.0  0.00000  0.00000  0.00000  1.0000
  Tl  Tl5       1.0  0.18051  0.01952  0.50000  1.0000
  Tl  Tl6       1.0  0.01952  0.51952  0.83901  1.0000
  Tl  Tl7       1.0  0.68051  0.18051  0.16099  1.0000
  Tl  Tl8       1.0  0.31949  0.81949  0.83901  1.0000
  Tl  Tl9       1.0  0.98048  0.48048  0.16099  1.0000
  Tl  Tl10      1.0  0.81949  0.98048  0.50000  1.0000
  Cu  Cu1       1.0  0.87766  0.62234  0.50000  1.0000
  Cu  Cu2       1.0  0.62234  0.12234  0.74467  1.0000
  Cu  Cu3       1.0  0.37766  0.87766  0.25533  1.0000
  Cu  Cu4       1.0  0.12234  0.37766  0.50000  1.0000
  Cu  Cu5       1.0  0.25000  0.25000  0.00000  1.0000
  Cu  Cu6       1.0  0.75000  0.75000  0.00000  1.0000
