data_image0
_chemical_formula_structural       Tl9Cu13
_chemical_formula_sum              "Tl9 Cu13"
_cell_length_a       9.01651
_cell_length_b       9.01651
_cell_length_c       5.50405
_cell_angle_alpha    90
_cell_angle_beta     90
_cell_angle_gamma    120

_space_group_name_H-M_alt    "P 1"
_space_group_IT_number       1

loop_
  _space_group_symop_operation_xyz
  'x, y, z'

loop_
  _atom_site_type_symbol
  _atom_site_label
  _atom_site_symmetry_multiplicity
  _atom_site_fract_x
  _atom_site_fract_y
  _atom_site_fract_z
  _atom_site_occupancy
  Tl  Tl1       1.0  0.00000  0.00000  0.50000  1.0000
  Tl  Tl2       1.0  0.33333  0.66667  0.76173  1.0000
  Tl  Tl3       1.0  0.66667  0.33333  0.23827  1.0000
  Tl  Tl4       1.0  0.19466  0.80534  0.26758  1.0000
  Tl  Tl5       1.0  0.19466  0.38931  0.26758  1.0000
  Tl  Tl6       1.0  0.61069  0.80534  0.26758  1.0000
  Tl  Tl7       1.0  0.38931  0.19466  0.73242  1.0000
  Tl  Tl8       1.0  0.80534  0.61069  0.73242  1.0000
  Tl  Tl9       1.0  0.80534  0.19466  0.73242  1.0000
  Cu  Cu1       1.0  0.00000  0.00000  0.00000  1.0000
  Cu  Cu2       1.0  0.50000  0.00000  0.00000  1.0000
  Cu  Cu3       1.0  0.00000  0.50000  0.00000  1.0000
  Cu  Cu4       1.0  0.50000  0.50000  0.00000  1.0000
  Cu  Cu5       1.0  0.50000  0.00000  0.50000  1.0000
  Cu  Cu6       1.0  0.00000  0.50000  0.50000  1.0000
  Cu  Cu7       1.0  0.50000  0.50000  0.50000  1.0000
  Cu  Cu8       1.0  0.15808  0.84192  0.78512  1.0000
  Cu  Cu9       1.0  0.15808  0.31616  0.78512  1.0000
  Cu  Cu10      1.0  0.68384  0.84192  0.78512  1.0000
  Cu  Cu11      1.0  0.31616  0.15808  0.21488  1.0000
  Cu  Cu12      1.0  0.84192  0.68384  0.21488  1.0000
  Cu  Cu13      1.0  0.84192  0.15808  0.21488  1.0000
