data_image0
_chemical_formula_structural       Tl8Cu4
_chemical_formula_sum              "Tl8 Cu4"
_cell_length_a       5.73908
_cell_length_b       6.96498
_cell_length_c       7.57044
_cell_angle_alpha    72.8698
_cell_angle_beta     90
_cell_angle_gamma    90

_space_group_name_H-M_alt    "P 1"
_space_group_IT_number       1

loop_
  _space_group_symop_operation_xyz
  'x, y, z'

loop_
  _atom_site_type_symbol
  _atom_site_label
  _atom_site_symmetry_multiplicity
  _atom_site_fract_x
  _atom_site_fract_y
  _atom_site_fract_z
  _atom_site_occupancy
  Tl  Tl1       1.0  0.24199  0.03951  0.37870  1.0000
  Tl  Tl2       1.0  0.74199  0.96049  0.12130  1.0000
  Tl  Tl3       1.0  0.75801  0.96049  0.62130  1.0000
  Tl  Tl4       1.0  0.25801  0.03951  0.87870  1.0000
  Tl  Tl5       1.0  0.86468  0.40892  0.69613  1.0000
  Tl  Tl6       1.0  0.36468  0.59108  0.80387  1.0000
  Tl  Tl7       1.0  0.13532  0.59108  0.30387  1.0000
  Tl  Tl8       1.0  0.63532  0.40892  0.19613  1.0000
  Cu  Cu1       1.0  0.05683  0.31359  0.05648  1.0000
  Cu  Cu2       1.0  0.55683  0.68641  0.44352  1.0000
  Cu  Cu3       1.0  0.94317  0.68641  0.94352  1.0000
  Cu  Cu4       1.0  0.44317  0.31359  0.55648  1.0000
