data_image0
_chemical_formula_structural       Cu3Tl4
_chemical_formula_sum              "Cu3 Tl4"
_cell_length_a       7.05494
_cell_length_b       7.05494
_cell_length_c       6.8812
_cell_angle_alpha    57.4372
_cell_angle_beta     57.4372
_cell_angle_gamma    34.611

_space_group_name_H-M_alt    "P 1"
_space_group_IT_number       1

loop_
  _space_group_symop_operation_xyz
  'x, y, z'

loop_
  _atom_site_type_symbol
  _atom_site_label
  _atom_site_symmetry_multiplicity
  _atom_site_fract_x
  _atom_site_fract_y
  _atom_site_fract_z
  _atom_site_occupancy
  Cu  Cu1       1.0  0.27593  0.27593  0.71310  1.0000
  Cu  Cu2       1.0  0.72407  0.72407  0.28690  1.0000
  Cu  Cu3       1.0  0.50000  0.50000  0.50000  1.0000
  Tl  Tl1       1.0  0.89539  0.89539  0.39259  1.0000
  Tl  Tl2       1.0  0.10461  0.10461  0.60741  1.0000
  Tl  Tl3       1.0  0.36803  0.36803  0.99743  1.0000
  Tl  Tl4       1.0  0.63197  0.63197  0.00257  1.0000
