data_image0
_chemical_formula_structural       Cu4Se12
_chemical_formula_sum              "Cu4 Se12"
_cell_length_a       9.03604
_cell_length_b       9.03604
_cell_length_c       6.86731
_cell_angle_alpha    90
_cell_angle_beta     90
_cell_angle_gamma    136.042

_space_group_name_H-M_alt    "P 1"
_space_group_IT_number       1

loop_
  _space_group_symop_operation_xyz
  'x, y, z'

loop_
  _atom_site_type_symbol
  _atom_site_label
  _atom_site_symmetry_multiplicity
  _atom_site_fract_x
  _atom_site_fract_y
  _atom_site_fract_z
  _atom_site_occupancy
  Cu  Cu1       1.0  0.71632  0.28368  0.00000  1.0000
  Cu  Cu2       1.0  0.28368  0.71632  0.00000  1.0000
  Cu  Cu3       1.0  0.21632  0.78368  0.50000  1.0000
  Cu  Cu4       1.0  0.78368  0.21632  0.50000  1.0000
  Se  Se1       1.0  0.63478  0.63478  0.10021  1.0000
  Se  Se2       1.0  0.13478  0.13478  0.39979  1.0000
  Se  Se3       1.0  0.86522  0.86522  0.60021  1.0000
  Se  Se4       1.0  0.42949  0.57051  0.50000  1.0000
  Se  Se5       1.0  0.99919  0.49919  0.75000  1.0000
  Se  Se6       1.0  0.92949  0.07051  0.00000  1.0000
  Se  Se7       1.0  0.00081  0.50081  0.25000  1.0000
  Se  Se8       1.0  0.36522  0.36522  0.89979  1.0000
  Se  Se9       1.0  0.57051  0.42949  0.50000  1.0000
  Se  Se10      1.0  0.07051  0.92949  0.00000  1.0000
  Se  Se11      1.0  0.50081  0.00081  0.25000  1.0000
  Se  Se12      1.0  0.49919  0.99919  0.75000  1.0000
