data_image0
_chemical_formula_structural       Cu4Tl8
_chemical_formula_sum              "Cu4 Tl8"
_cell_length_a       9.3498
_cell_length_b       9.3498
_cell_length_c       9.21098
_cell_angle_alpha    90
_cell_angle_beta     90
_cell_angle_gamma    159.002

_space_group_name_H-M_alt    "P 1"
_space_group_IT_number       1

loop_
  _space_group_symop_operation_xyz
  'x, y, z'

loop_
  _atom_site_type_symbol
  _atom_site_label
  _atom_site_symmetry_multiplicity
  _atom_site_fract_x
  _atom_site_fract_y
  _atom_site_fract_z
  _atom_site_occupancy
  Cu  Cu1       1.0  0.52288  0.47712  0.75822  1.0000
  Cu  Cu2       1.0  0.47712  0.52288  0.25822  1.0000
  Cu  Cu3       1.0  0.23377  0.76623  0.32103  1.0000
  Cu  Cu4       1.0  0.76623  0.23377  0.82103  1.0000
  Tl  Tl1       1.0  0.96835  0.03165  0.00206  1.0000
  Tl  Tl2       1.0  0.03165  0.96835  0.50206  1.0000
  Tl  Tl3       1.0  0.13850  0.86150  0.85540  1.0000
  Tl  Tl4       1.0  0.86150  0.13850  0.35540  1.0000
  Tl  Tl5       1.0  0.29538  0.70462  0.05271  1.0000
  Tl  Tl6       1.0  0.70462  0.29538  0.55271  1.0000
  Tl  Tl7       1.0  0.62475  0.37525  0.19628  1.0000
  Tl  Tl8       1.0  0.37525  0.62475  0.69628  1.0000
