data_image0
_chemical_formula_structural       CuTl2
_chemical_formula_sum              "Cu1 Tl2"
_cell_length_a       6.71382
_cell_length_b       6.71382
_cell_length_c       6.71382
_cell_angle_alpha    150.78
_cell_angle_beta     150.78
_cell_angle_gamma    41.797

_space_group_name_H-M_alt    "P 1"
_space_group_IT_number       1

loop_
  _space_group_symop_operation_xyz
  'x, y, z'

loop_
  _atom_site_type_symbol
  _atom_site_label
  _atom_site_symmetry_multiplicity
  _atom_site_fract_x
  _atom_site_fract_y
  _atom_site_fract_z
  _atom_site_occupancy
  Cu  Cu1       1.0  0.00000  0.00000  0.00000  1.0000
  Tl  Tl1       1.0  0.35870  0.35870  0.00000  1.0000
  Tl  Tl2       1.0  0.64130  0.64130  0.00000  1.0000
