data_image0
_chemical_formula_structural       Cu4Se8
_chemical_formula_sum              "Cu4 Se8"
_cell_length_a       6.15125
_cell_length_b       6.1626
_cell_length_c       6.16716
_cell_angle_alpha    90
_cell_angle_beta     90
_cell_angle_gamma    90

_space_group_name_H-M_alt    "P 1"
_space_group_IT_number       1

loop_
  _space_group_symop_operation_xyz
  'x, y, z'

loop_
  _atom_site_type_symbol
  _atom_site_label
  _atom_site_symmetry_multiplicity
  _atom_site_fract_x
  _atom_site_fract_y
  _atom_site_fract_z
  _atom_site_occupancy
  Cu  Cu1       1.0  0.50000  0.00000  0.50000  1.0000
  Cu  Cu2       1.0  0.00000  0.50000  0.50000  1.0000
  Cu  Cu3       1.0  0.50000  0.50000  0.00000  1.0000
  Cu  Cu4       1.0  0.00000  0.00000  0.00000  1.0000
  Se  Se1       1.0  0.61088  0.11170  0.11031  1.0000
  Se  Se2       1.0  0.11088  0.38830  0.88969  1.0000
  Se  Se3       1.0  0.38912  0.61170  0.38969  1.0000
  Se  Se4       1.0  0.88912  0.88830  0.61031  1.0000
  Se  Se5       1.0  0.11088  0.11170  0.38969  1.0000
  Se  Se6       1.0  0.61088  0.38830  0.61031  1.0000
  Se  Se7       1.0  0.88912  0.61170  0.11031  1.0000
  Se  Se8       1.0  0.38912  0.88830  0.88969  1.0000
