data_image0
_chemical_formula_structural       Tl4Cu2
_chemical_formula_sum              "Tl4 Cu2"
_cell_length_a       5.68333
_cell_length_b       5.68333
_cell_length_c       5.68333
_cell_angle_alpha    105.327
_cell_angle_beta     105.327
_cell_angle_gamma    118.122

_space_group_name_H-M_alt    "P 1"
_space_group_IT_number       1

loop_
  _space_group_symop_operation_xyz
  'x, y, z'

loop_
  _atom_site_type_symbol
  _atom_site_label
  _atom_site_symmetry_multiplicity
  _atom_site_fract_x
  _atom_site_fract_y
  _atom_site_fract_z
  _atom_site_occupancy
  Tl  Tl1       1.0  0.33317  0.83317  0.16634  1.0000
  Tl  Tl2       1.0  0.16683  0.33317  0.50000  1.0000
  Tl  Tl3       1.0  0.83317  0.66683  0.50000  1.0000
  Tl  Tl4       1.0  0.66683  0.16683  0.83366  1.0000
  Cu  Cu1       1.0  0.75000  0.75000  0.00000  1.0000
  Cu  Cu2       1.0  0.25000  0.25000  0.00000  1.0000
