data_image0
_chemical_formula_structural       Cu4Tl4
_chemical_formula_sum              "Cu4 Tl4"
_cell_length_a       5.40228
_cell_length_b       5.40228
_cell_length_c       5.40228
_cell_angle_alpha    90
_cell_angle_beta     90
_cell_angle_gamma    90

_space_group_name_H-M_alt    "P 1"
_space_group_IT_number       1

loop_
  _space_group_symop_operation_xyz
  'x, y, z'

loop_
  _atom_site_type_symbol
  _atom_site_label
  _atom_site_symmetry_multiplicity
  _atom_site_fract_x
  _atom_site_fract_y
  _atom_site_fract_z
  _atom_site_occupancy
  Cu  Cu1       1.0  0.84886  0.65114  0.34886  1.0000
  Cu  Cu2       1.0  0.65114  0.34886  0.84886  1.0000
  Cu  Cu3       1.0  0.34886  0.84886  0.65114  1.0000
  Cu  Cu4       1.0  0.15114  0.15114  0.15114  1.0000
  Tl  Tl1       1.0  0.16261  0.33739  0.66261  1.0000
  Tl  Tl2       1.0  0.33739  0.66261  0.16261  1.0000
  Tl  Tl3       1.0  0.66261  0.16261  0.33739  1.0000
  Tl  Tl4       1.0  0.83739  0.83739  0.83739  1.0000
