data_image0
_chemical_formula_structural       Au12Fe8
_chemical_formula_sum              "Au12 Fe8"
_cell_length_a       5.58796
_cell_length_b       7.59918
_cell_length_c       8.43467
_cell_angle_alpha    89.9876
_cell_angle_beta     89.9999
_cell_angle_gamma    89.9998

_space_group_name_H-M_alt    "P 1"
_space_group_IT_number       1

loop_
  _space_group_symop_operation_xyz
  'x, y, z'

loop_
  _atom_site_type_symbol
  _atom_site_label
  _atom_site_symmetry_multiplicity
  _atom_site_fract_x
  _atom_site_fract_y
  _atom_site_fract_z
  _atom_site_occupancy
  Au  Au1       1.0  0.25000  0.91641  0.37030  1.0000
  Au  Au2       1.0  0.75000  0.08359  0.62970  1.0000
  Au  Au3       1.0  0.50052  0.25033  0.37891  1.0000
  Au  Au4       1.0  0.00057  0.74969  0.62110  1.0000
  Au  Au5       1.0  0.49942  0.24953  0.87904  1.0000
  Au  Au6       1.0  0.00057  0.24953  0.87905  1.0000
  Au  Au7       1.0  0.49943  0.74969  0.62111  1.0000
  Au  Au8       1.0  0.99948  0.25033  0.37891  1.0000
  Au  Au9       1.0  0.50063  0.75043  0.12094  1.0000
  Au  Au10      1.0  0.25000  0.41658  0.12966  1.0000
  Au  Au11      1.0  0.99937  0.75043  0.12094  1.0000
  Au  Au12      1.0  0.75000  0.58339  0.87037  1.0000
  Fe  Fe1       1.0  0.25000  0.55494  0.41637  1.0000
  Fe  Fe2       1.0  0.25000  0.08021  0.64956  1.0000
  Fe  Fe3       1.0  0.75000  0.91980  0.35039  1.0000
  Fe  Fe4       1.0  0.75000  0.42004  0.14963  1.0000
  Fe  Fe5       1.0  0.25000  0.58004  0.85042  1.0000
  Fe  Fe6       1.0  0.25000  0.05499  0.08385  1.0000
  Fe  Fe7       1.0  0.74999  0.44508  0.58363  1.0000
  Fe  Fe8       1.0  0.75000  0.94496  0.91612  1.0000
