data_image0
_chemical_formula_structural       Fe2Hg4
_chemical_formula_sum              "Fe2 Hg4"
_cell_length_a       2.83568
_cell_length_b       7.09413
_cell_length_c       7.11
_cell_angle_alpha    90
_cell_angle_beta     90
_cell_angle_gamma    90

_space_group_name_H-M_alt    "P 1"
_space_group_IT_number       1

loop_
  _space_group_symop_operation_xyz
  'x, y, z'

loop_
  _atom_site_type_symbol
  _atom_site_label
  _atom_site_symmetry_multiplicity
  _atom_site_fract_x
  _atom_site_fract_y
  _atom_site_fract_z
  _atom_site_occupancy
  Fe  Fe1       1.0  0.50000  0.50000  0.50000  1.0000
  Fe  Fe2       1.0  0.00000  0.00000  0.00000  1.0000
  Hg  Hg1       1.0  0.50000  0.23799  0.76971  1.0000
  Hg  Hg2       1.0  0.50000  0.76201  0.23029  1.0000
  Hg  Hg3       1.0  0.00000  0.26201  0.26971  1.0000
  Hg  Hg4       1.0  0.00000  0.73799  0.73029  1.0000
