data_image0
_chemical_formula_structural       Cl6Fe2
_chemical_formula_sum              "Cl6 Fe2"
_cell_length_a       9.69573
_cell_length_b       9.69505
_cell_length_c       3.17949
_cell_angle_alpha    90
_cell_angle_beta     90
_cell_angle_gamma    119.994

_space_group_name_H-M_alt    "P 1"
_space_group_IT_number       1

loop_
  _space_group_symop_operation_xyz
  'x, y, z'

loop_
  _atom_site_type_symbol
  _atom_site_label
  _atom_site_symmetry_multiplicity
  _atom_site_fract_x
  _atom_site_fract_y
  _atom_site_fract_z
  _atom_site_occupancy
  Cl  Cl1       1.0  0.77537  0.22462  0.75000  1.0000
  Cl  Cl2       1.0  0.44923  0.22458  0.75000  1.0000
  Cl  Cl3       1.0  0.77541  0.55077  0.75000  1.0000
  Cl  Cl4       1.0  0.22460  0.77540  0.25000  1.0000
  Cl  Cl5       1.0  0.55080  0.77542  0.25000  1.0000
  Cl  Cl6       1.0  0.22460  0.44925  0.25000  1.0000
  Fe  Fe1       1.0  0.66645  0.33317  0.25000  1.0000
  Fe  Fe2       1.0  0.33355  0.66678  0.75000  1.0000
