data_image0
_chemical_formula_structural       Fe12Br16
_chemical_formula_sum              "Fe12 Br16"
_cell_length_a       10.9979
_cell_length_b       10.9979
_cell_length_c       8.02549
_cell_angle_alpha    90
_cell_angle_beta     90
_cell_angle_gamma    120

_space_group_name_H-M_alt    "P 1"
_space_group_IT_number       1

loop_
  _space_group_symop_operation_xyz
  'x, y, z'

loop_
  _atom_site_type_symbol
  _atom_site_label
  _atom_site_symmetry_multiplicity
  _atom_site_fract_x
  _atom_site_fract_y
  _atom_site_fract_z
  _atom_site_occupancy
  Fe  Fe1       1.0  0.56268  0.08179  0.79990  1.0000
  Fe  Fe2       1.0  0.51911  0.43732  0.79990  1.0000
  Fe  Fe3       1.0  0.91821  0.48089  0.79990  1.0000
  Fe  Fe4       1.0  0.43732  0.51911  0.29990  1.0000
  Fe  Fe5       1.0  0.48089  0.91821  0.29990  1.0000
  Fe  Fe6       1.0  0.08179  0.56268  0.29990  1.0000
  Fe  Fe7       1.0  0.08970  0.25584  0.01552  1.0000
  Fe  Fe8       1.0  0.16614  0.91030  0.01552  1.0000
  Fe  Fe9       1.0  0.74416  0.83386  0.01552  1.0000
  Fe  Fe10      1.0  0.91030  0.16614  0.51552  1.0000
  Fe  Fe11      1.0  0.83386  0.74416  0.51552  1.0000
  Fe  Fe12      1.0  0.25584  0.08970  0.51552  1.0000
  Br  Br1       1.0  0.03824  0.65005  0.03381  1.0000
  Br  Br2       1.0  0.61181  0.96176  0.03381  1.0000
  Br  Br3       1.0  0.34995  0.38819  0.03381  1.0000
  Br  Br4       1.0  0.96176  0.61181  0.53381  1.0000
  Br  Br5       1.0  0.38819  0.34995  0.53381  1.0000
  Br  Br6       1.0  0.65005  0.03824  0.53381  1.0000
  Br  Br7       1.0  0.02430  0.33026  0.75340  1.0000
  Br  Br8       1.0  0.30596  0.97570  0.75340  1.0000
  Br  Br9       1.0  0.66974  0.69404  0.75340  1.0000
  Br  Br10      1.0  0.97570  0.30596  0.25340  1.0000
  Br  Br11      1.0  0.69404  0.66974  0.25340  1.0000
  Br  Br12      1.0  0.33026  0.02430  0.25340  1.0000
  Br  Br13      1.0  0.00000  0.00000  0.02218  1.0000
  Br  Br14      1.0  0.00000  0.00000  0.52218  1.0000
  Br  Br15      1.0  0.33333  0.66667  0.38433  1.0000
  Br  Br16      1.0  0.66667  0.33333  0.88433  1.0000
