data_image0
_chemical_formula_structural       F4Fe2
_chemical_formula_sum              "F4 Fe2"
_cell_length_a       4.41353
_cell_length_b       4.41332
_cell_length_c       4.41353
_cell_angle_alpha    110.649
_cell_angle_beta     110.651
_cell_angle_gamma    107.14

_space_group_name_H-M_alt    "P 1"
_space_group_IT_number       1

loop_
  _space_group_symop_operation_xyz
  'x, y, z'

loop_
  _atom_site_type_symbol
  _atom_site_label
  _atom_site_symmetry_multiplicity
  _atom_site_fract_x
  _atom_site_fract_y
  _atom_site_fract_z
  _atom_site_occupancy
  F   F1        1.0  0.28005  0.78000  0.06004  1.0000
  F   F2        1.0  0.21996  0.28000  0.49995  1.0000
  F   F3        1.0  0.78007  0.71991  0.49998  1.0000
  F   F4        1.0  0.71993  0.21991  0.93985  1.0000
  Fe  Fe1       1.0  0.75000  0.75009  0.00009  1.0000
  Fe  Fe2       1.0  0.25000  0.25009  0.00009  1.0000
