data_image0
_chemical_formula_structural       Fe8Ag12
_chemical_formula_sum              "Fe8 Ag12"
_cell_length_a       2.79625
_cell_length_b       10.5012
_cell_length_c       11.2131
_cell_angle_alpha    90
_cell_angle_beta     90
_cell_angle_gamma    90

_space_group_name_H-M_alt    "P 1"
_space_group_IT_number       1

loop_
  _space_group_symop_operation_xyz
  'x, y, z'

loop_
  _atom_site_type_symbol
  _atom_site_label
  _atom_site_symmetry_multiplicity
  _atom_site_fract_x
  _atom_site_fract_y
  _atom_site_fract_z
  _atom_site_occupancy
  Fe  Fe1       1.0  0.25000  0.97600  0.91946  1.0000
  Fe  Fe2       1.0  0.75000  0.02400  0.08054  1.0000
  Fe  Fe3       1.0  0.75000  0.47600  0.58054  1.0000
  Fe  Fe4       1.0  0.25000  0.52400  0.41946  1.0000
  Fe  Fe5       1.0  0.25000  0.08802  0.50393  1.0000
  Fe  Fe6       1.0  0.75000  0.91198  0.49607  1.0000
  Fe  Fe7       1.0  0.75000  0.58802  0.99607  1.0000
  Fe  Fe8       1.0  0.25000  0.41198  0.00393  1.0000
  Ag  Ag1       1.0  0.25000  0.27074  0.67443  1.0000
  Ag  Ag2       1.0  0.75000  0.72926  0.32557  1.0000
  Ag  Ag3       1.0  0.75000  0.77074  0.82557  1.0000
  Ag  Ag4       1.0  0.25000  0.22926  0.17443  1.0000
  Ag  Ag5       1.0  0.25000  0.97989  0.28869  1.0000
  Ag  Ag6       1.0  0.75000  0.02011  0.71131  1.0000
  Ag  Ag7       1.0  0.75000  0.47989  0.21131  1.0000
  Ag  Ag8       1.0  0.25000  0.52011  0.78869  1.0000
  Ag  Ag9       1.0  0.25000  0.78906  0.09346  1.0000
  Ag  Ag10      1.0  0.75000  0.21094  0.90654  1.0000
  Ag  Ag11      1.0  0.75000  0.28906  0.40654  1.0000
  Ag  Ag12      1.0  0.25000  0.71094  0.59346  1.0000
