data_image0
_chemical_formula_structural       Fe6F6
_chemical_formula_sum              "Fe6 F6"
_cell_length_a       3.21525
_cell_length_b       3.21525
_cell_length_c       18.0195
_cell_angle_alpha    90
_cell_angle_beta     90
_cell_angle_gamma    108.547

_space_group_name_H-M_alt    "P 1"
_space_group_IT_number       1

loop_
  _space_group_symop_operation_xyz
  'x, y, z'

loop_
  _atom_site_type_symbol
  _atom_site_label
  _atom_site_symmetry_multiplicity
  _atom_site_fract_x
  _atom_site_fract_y
  _atom_site_fract_z
  _atom_site_occupancy
  Fe  Fe1       1.0  0.39781  0.60219  0.13944  1.0000
  Fe  Fe2       1.0  0.60219  0.39781  0.86056  1.0000
  Fe  Fe3       1.0  0.60219  0.39781  0.63944  1.0000
  Fe  Fe4       1.0  0.39781  0.60219  0.36056  1.0000
  Fe  Fe5       1.0  0.31012  0.68988  0.75000  1.0000
  Fe  Fe6       1.0  0.68988  0.31012  0.25000  1.0000
  F   F1        1.0  0.89584  0.10416  0.75000  1.0000
  F   F2        1.0  0.10416  0.89584  0.25000  1.0000
  F   F3        1.0  0.96802  0.03198  0.59347  1.0000
  F   F4        1.0  0.03198  0.96802  0.09347  1.0000
  F   F5        1.0  0.96802  0.03198  0.90653  1.0000
  F   F6        1.0  0.03198  0.96802  0.40653  1.0000
