data_image0
_chemical_formula_structural       Fe4Au8
_chemical_formula_sum              "Fe4 Au8"
_cell_length_a       4.70987
_cell_length_b       4.71117
_cell_length_c       8.87382
_cell_angle_alpha    90
_cell_angle_beta     90
_cell_angle_gamma    90

_space_group_name_H-M_alt    "P 1"
_space_group_IT_number       1

loop_
  _space_group_symop_operation_xyz
  'x, y, z'

loop_
  _atom_site_type_symbol
  _atom_site_label
  _atom_site_symmetry_multiplicity
  _atom_site_fract_x
  _atom_site_fract_y
  _atom_site_fract_z
  _atom_site_occupancy
  Fe  Fe1       1.0  0.50000  0.00000  0.50000  1.0000
  Fe  Fe2       1.0  0.00000  0.50000  0.50000  1.0000
  Fe  Fe3       1.0  0.50000  0.50000  0.00000  1.0000
  Fe  Fe4       1.0  0.00000  0.00000  0.00000  1.0000
  Au  Au1       1.0  0.50018  0.99756  0.15906  1.0000
  Au  Au2       1.0  0.00018  0.50244  0.84094  1.0000
  Au  Au3       1.0  0.49982  0.49756  0.34094  1.0000
  Au  Au4       1.0  0.99982  0.00244  0.65906  1.0000
  Au  Au5       1.0  0.00018  0.99756  0.34094  1.0000
  Au  Au6       1.0  0.50018  0.50244  0.65906  1.0000
  Au  Au7       1.0  0.99982  0.49756  0.15906  1.0000
  Au  Au8       1.0  0.49982  0.00244  0.84094  1.0000
