data_image0
_chemical_formula_structural       Fe4Au16
_chemical_formula_sum              "Fe4 Au16"
_cell_length_a       4.79772
_cell_length_b       4.95837
_cell_length_c       14.4339
_cell_angle_alpha    90
_cell_angle_beta     90
_cell_angle_gamma    90

_space_group_name_H-M_alt    "P 1"
_space_group_IT_number       1

loop_
  _space_group_symop_operation_xyz
  'x, y, z'

loop_
  _atom_site_type_symbol
  _atom_site_label
  _atom_site_symmetry_multiplicity
  _atom_site_fract_x
  _atom_site_fract_y
  _atom_site_fract_z
  _atom_site_occupancy
  Fe  Fe1       1.0  0.25000  0.66450  0.89770  1.0000
  Fe  Fe2       1.0  0.25000  0.16450  0.60230  1.0000
  Fe  Fe3       1.0  0.75000  0.83550  0.39770  1.0000
  Fe  Fe4       1.0  0.75000  0.33550  0.10230  1.0000
  Au  Au1       1.0  0.25000  0.16248  0.99537  1.0000
  Au  Au2       1.0  0.25000  0.17029  0.19481  1.0000
  Au  Au3       1.0  0.25000  0.15208  0.40589  1.0000
  Au  Au4       1.0  0.75000  0.32971  0.69481  1.0000
  Au  Au5       1.0  0.75000  0.33752  0.49537  1.0000
  Au  Au6       1.0  0.25000  0.66248  0.50463  1.0000
  Au  Au7       1.0  0.75000  0.84792  0.59411  1.0000
  Au  Au8       1.0  0.25000  0.65208  0.09411  1.0000
  Au  Au9       1.0  0.75000  0.83172  0.20122  1.0000
  Au  Au10      1.0  0.25000  0.16828  0.79878  1.0000
  Au  Au11      1.0  0.75000  0.82971  0.80519  1.0000
  Au  Au12      1.0  0.75000  0.34792  0.90589  1.0000
  Au  Au13      1.0  0.25000  0.67029  0.30519  1.0000
  Au  Au14      1.0  0.25000  0.66828  0.70122  1.0000
  Au  Au15      1.0  0.75000  0.83752  0.00463  1.0000
  Au  Au16      1.0  0.75000  0.33172  0.29878  1.0000
