data_image0
_chemical_formula_structural       Fe6Ag16
_chemical_formula_sum              "Fe6 Ag16"
_cell_length_a       5.07391
_cell_length_b       6.17847
_cell_length_c       12.1127
_cell_angle_alpha    81.4523
_cell_angle_beta     90
_cell_angle_gamma    90

_space_group_name_H-M_alt    "P 1"
_space_group_IT_number       1

loop_
  _space_group_symop_operation_xyz
  'x, y, z'

loop_
  _atom_site_type_symbol
  _atom_site_label
  _atom_site_symmetry_multiplicity
  _atom_site_fract_x
  _atom_site_fract_y
  _atom_site_fract_z
  _atom_site_occupancy
  Fe  Fe1       1.0  0.64658  0.95258  0.79315  1.0000
  Fe  Fe2       1.0  0.35342  0.04742  0.20685  1.0000
  Fe  Fe3       1.0  0.50000  0.00000  0.00000  1.0000
  Fe  Fe4       1.0  0.14658  0.04742  0.70685  1.0000
  Fe  Fe5       1.0  0.85342  0.95258  0.29315  1.0000
  Fe  Fe6       1.0  0.00000  0.00000  0.50000  1.0000
  Ag  Ag1       1.0  0.56200  0.62539  0.20011  1.0000
  Ag  Ag2       1.0  0.70792  0.24355  0.61945  1.0000
  Ag  Ag3       1.0  0.72311  0.60201  0.95054  1.0000
  Ag  Ag4       1.0  0.53269  0.19032  0.39958  1.0000
  Ag  Ag5       1.0  0.96731  0.19032  0.89958  1.0000
  Ag  Ag6       1.0  0.79208  0.24355  0.11945  1.0000
  Ag  Ag7       1.0  0.77689  0.60201  0.45054  1.0000
  Ag  Ag8       1.0  0.93800  0.62539  0.70011  1.0000
  Ag  Ag9       1.0  0.20792  0.75645  0.88055  1.0000
  Ag  Ag10      1.0  0.03269  0.80968  0.10042  1.0000
  Ag  Ag11      1.0  0.22311  0.39799  0.54946  1.0000
  Ag  Ag12      1.0  0.06200  0.37461  0.29989  1.0000
  Ag  Ag13      1.0  0.27689  0.39799  0.04946  1.0000
  Ag  Ag14      1.0  0.43800  0.37461  0.79989  1.0000
  Ag  Ag15      1.0  0.29208  0.75645  0.38055  1.0000
  Ag  Ag16      1.0  0.46731  0.80968  0.60042  1.0000
