data_image0
_chemical_formula_structural       Fe2Br6
_chemical_formula_sum              "Fe2 Br6"
_cell_length_a       3.34432
_cell_length_b       9.01468
_cell_length_c       9.4267
_cell_angle_alpha    90
_cell_angle_beta     90
_cell_angle_gamma    90

_space_group_name_H-M_alt    "P 1"
_space_group_IT_number       1

loop_
  _space_group_symop_operation_xyz
  'x, y, z'

loop_
  _atom_site_type_symbol
  _atom_site_label
  _atom_site_symmetry_multiplicity
  _atom_site_fract_x
  _atom_site_fract_y
  _atom_site_fract_z
  _atom_site_occupancy
  Fe  Fe1       1.0  0.50000  0.30658  0.50000  1.0000
  Fe  Fe2       1.0  0.00000  0.69342  0.00000  1.0000
  Br  Br1       1.0  0.00000  0.52399  0.50000  1.0000
  Br  Br2       1.0  0.50000  0.47601  0.00000  1.0000
  Br  Br3       1.0  0.00000  0.19684  0.67999  1.0000
  Br  Br4       1.0  0.50000  0.80316  0.82001  1.0000
  Br  Br5       1.0  0.00000  0.19684  0.32001  1.0000
  Br  Br6       1.0  0.50000  0.80316  0.17999  1.0000
