data_image0
_chemical_formula_structural       Ag6Fe2
_chemical_formula_sum              "Ag6 Fe2"
_cell_length_a       4.70413
_cell_length_b       4.94667
_cell_length_c       5.77264
_cell_angle_alpha    90
_cell_angle_beta     90
_cell_angle_gamma    90

_space_group_name_H-M_alt    "P 1"
_space_group_IT_number       1

loop_
  _space_group_symop_operation_xyz
  'x, y, z'

loop_
  _atom_site_type_symbol
  _atom_site_label
  _atom_site_symmetry_multiplicity
  _atom_site_fract_x
  _atom_site_fract_y
  _atom_site_fract_z
  _atom_site_occupancy
  Ag  Ag1       1.0  0.00000  0.33483  0.24900  1.0000
  Ag  Ag2       1.0  0.00000  0.33483  0.75100  1.0000
  Ag  Ag3       1.0  0.50000  0.66513  0.25100  1.0000
  Ag  Ag4       1.0  0.50000  0.66513  0.74900  1.0000
  Ag  Ag5       1.0  0.00000  0.84596  0.50000  1.0000
  Ag  Ag6       1.0  0.50000  0.15398  0.00000  1.0000
  Fe  Fe1       1.0  0.00000  0.83861  0.00000  1.0000
  Fe  Fe2       1.0  0.50000  0.16154  0.50000  1.0000
