data_image0
_chemical_formula_structural       Hg6Fe2
_chemical_formula_sum              "Hg6 Fe2"
_cell_length_a       4.38102
_cell_length_b       6.12537
_cell_length_c       6.40603
_cell_angle_alpha    90
_cell_angle_beta     90
_cell_angle_gamma    90

_space_group_name_H-M_alt    "P 1"
_space_group_IT_number       1

loop_
  _space_group_symop_operation_xyz
  'x, y, z'

loop_
  _atom_site_type_symbol
  _atom_site_label
  _atom_site_symmetry_multiplicity
  _atom_site_fract_x
  _atom_site_fract_y
  _atom_site_fract_z
  _atom_site_occupancy
  Hg  Hg1       1.0  0.00000  0.33380  0.24300  1.0000
  Hg  Hg2       1.0  0.00000  0.33380  0.75700  1.0000
  Hg  Hg3       1.0  0.50000  0.66613  0.25695  1.0000
  Hg  Hg4       1.0  0.50000  0.66613  0.74305  1.0000
  Hg  Hg5       1.0  0.00000  0.91075  0.50000  1.0000
  Hg  Hg6       1.0  0.50000  0.08923  0.00000  1.0000
  Fe  Fe1       1.0  0.00000  0.76132  0.00000  1.0000
  Fe  Fe2       1.0  0.50000  0.23883  0.50000  1.0000
