data_image0
_chemical_formula_structural       Fe6Hg10
_chemical_formula_sum              "Fe6 Hg10"
_cell_length_a       4.19095
_cell_length_b       5.61643
_cell_length_c       13.6419
_cell_angle_alpha    90
_cell_angle_beta     90
_cell_angle_gamma    90

_space_group_name_H-M_alt    "P 1"
_space_group_IT_number       1

loop_
  _space_group_symop_operation_xyz
  'x, y, z'

loop_
  _atom_site_type_symbol
  _atom_site_label
  _atom_site_symmetry_multiplicity
  _atom_site_fract_x
  _atom_site_fract_y
  _atom_site_fract_z
  _atom_site_occupancy
  Fe  Fe1       1.0  0.50000  0.18649  0.95159  1.0000
  Fe  Fe2       1.0  0.50000  0.68649  0.54841  1.0000
  Fe  Fe3       1.0  0.00000  0.50000  0.50000  1.0000
  Fe  Fe4       1.0  0.00000  0.00000  0.00000  1.0000
  Fe  Fe5       1.0  0.50000  0.81351  0.04841  1.0000
  Fe  Fe6       1.0  0.50000  0.31351  0.45159  1.0000
  Hg  Hg1       1.0  0.50000  0.76742  0.34802  1.0000
  Hg  Hg2       1.0  0.50000  0.23258  0.65198  1.0000
  Hg  Hg3       1.0  0.00000  0.17043  0.80719  1.0000
  Hg  Hg4       1.0  0.50000  0.73258  0.84802  1.0000
  Hg  Hg5       1.0  0.00000  0.32957  0.30719  1.0000
  Hg  Hg6       1.0  0.00000  0.82957  0.19281  1.0000
  Hg  Hg7       1.0  0.00000  0.67043  0.69281  1.0000
  Hg  Hg8       1.0  0.00000  0.50000  0.00000  1.0000
  Hg  Hg9       1.0  0.00000  0.00000  0.50000  1.0000
  Hg  Hg10      1.0  0.50000  0.26742  0.15198  1.0000
