data_image0
_chemical_formula_structural       Fe2Ag6
_chemical_formula_sum              "Fe2 Ag6"
_cell_length_a       4.69817
_cell_length_b       4.94613
_cell_length_c       5.78358
_cell_angle_alpha    90
_cell_angle_beta     90
_cell_angle_gamma    90

_space_group_name_H-M_alt    "P 1"
_space_group_IT_number       1

loop_
  _space_group_symop_operation_xyz
  'x, y, z'

loop_
  _atom_site_type_symbol
  _atom_site_label
  _atom_site_symmetry_multiplicity
  _atom_site_fract_x
  _atom_site_fract_y
  _atom_site_fract_z
  _atom_site_occupancy
  Fe  Fe1       1.0  0.50000  0.33834  0.50000  1.0000
  Fe  Fe2       1.0  0.00000  0.66166  0.00000  1.0000
  Ag  Ag1       1.0  0.00000  0.65582  0.50000  1.0000
  Ag  Ag2       1.0  0.50000  0.34418  0.00000  1.0000
  Ag  Ag3       1.0  0.00000  0.16648  0.75093  1.0000
  Ag  Ag4       1.0  0.50000  0.83352  0.74907  1.0000
  Ag  Ag5       1.0  0.00000  0.16648  0.24907  1.0000
  Ag  Ag6       1.0  0.50000  0.83352  0.25093  1.0000
