data_image0
_chemical_formula_structural       Fe3Hg4
_chemical_formula_sum              "Fe3 Hg4"
_cell_length_a       5.39822
_cell_length_b       5.39822
_cell_length_c       8.13931
_cell_angle_alpha    52.8768
_cell_angle_beta     52.8768
_cell_angle_gamma    48.9381

_space_group_name_H-M_alt    "P 1"
_space_group_IT_number       1

loop_
  _space_group_symop_operation_xyz
  'x, y, z'

loop_
  _atom_site_type_symbol
  _atom_site_label
  _atom_site_symmetry_multiplicity
  _atom_site_fract_x
  _atom_site_fract_y
  _atom_site_fract_z
  _atom_site_occupancy
  Fe  Fe1       1.0  0.00000  0.00000  0.00000  1.0000
  Fe  Fe2       1.0  0.34588  0.34588  0.66850  1.0000
  Fe  Fe3       1.0  0.65412  0.65412  0.33150  1.0000
  Hg  Hg1       1.0  0.10747  0.10747  0.58295  1.0000
  Hg  Hg2       1.0  0.89253  0.89253  0.41705  1.0000
  Hg  Hg3       1.0  0.67770  0.67770  0.95624  1.0000
  Hg  Hg4       1.0  0.32230  0.32230  0.04376  1.0000
