data_image0
_chemical_formula_structural       Au6Fe2
_chemical_formula_sum              "Au6 Fe2"
_cell_length_a       5.79101
_cell_length_b       5.83007
_cell_length_c       4.63817
_cell_angle_alpha    90
_cell_angle_beta     90
_cell_angle_gamma    119.797

_space_group_name_H-M_alt    "P 1"
_space_group_IT_number       1

loop_
  _space_group_symop_operation_xyz
  'x, y, z'

loop_
  _atom_site_type_symbol
  _atom_site_label
  _atom_site_symmetry_multiplicity
  _atom_site_fract_x
  _atom_site_fract_y
  _atom_site_fract_z
  _atom_site_occupancy
  Au  Au1       1.0  0.17009  0.34035  0.25000  1.0000
  Au  Au2       1.0  0.66031  0.83020  0.25000  1.0000
  Au  Au3       1.0  0.17047  0.82985  0.25000  1.0000
  Au  Au4       1.0  0.82986  0.65936  0.75000  1.0000
  Au  Au5       1.0  0.34015  0.16972  0.75000  1.0000
  Au  Au6       1.0  0.83000  0.16993  0.75000  1.0000
  Fe  Fe1       1.0  0.33309  0.66617  0.75000  1.0000
  Fe  Fe2       1.0  0.66603  0.33442  0.25000  1.0000
