data_image0
_chemical_formula_structural       FeF5
_chemical_formula_sum              "Fe1 F5"
_cell_length_a       4.92422
_cell_length_b       4.92422
_cell_length_c       4.92422
_cell_angle_alpha    47.2066
_cell_angle_beta     47.2066
_cell_angle_gamma    47.2066

_space_group_name_H-M_alt    "P 1"
_space_group_IT_number       1

loop_
  _space_group_symop_operation_xyz
  'x, y, z'

loop_
  _atom_site_type_symbol
  _atom_site_label
  _atom_site_symmetry_multiplicity
  _atom_site_fract_x
  _atom_site_fract_y
  _atom_site_fract_z
  _atom_site_occupancy
  Fe  Fe1       1.0  0.00000  0.00000  0.00000  1.0000
  F   F1        1.0  0.65270  0.65270  0.65270  1.0000
  F   F2        1.0  0.09883  0.50000  0.90117  1.0000
  F   F3        1.0  0.50000  0.90117  0.09883  1.0000
  F   F4        1.0  0.90117  0.09883  0.50000  1.0000
  F   F5        1.0  0.34730  0.34730  0.34730  1.0000
