data_image0
_chemical_formula_structural       Fe2Au4
_chemical_formula_sum              "Fe2 Au4"
_cell_length_a       4.95678
_cell_length_b       4.95678
_cell_length_c       4.66642
_cell_angle_alpha    90
_cell_angle_beta     90
_cell_angle_gamma    121.182

_space_group_name_H-M_alt    "P 1"
_space_group_IT_number       1

loop_
  _space_group_symop_operation_xyz
  'x, y, z'

loop_
  _atom_site_type_symbol
  _atom_site_label
  _atom_site_symmetry_multiplicity
  _atom_site_fract_x
  _atom_site_fract_y
  _atom_site_fract_z
  _atom_site_occupancy
  Fe  Fe1       1.0  0.16661  0.16661  0.75000  1.0000
  Fe  Fe2       1.0  0.83339  0.83339  0.25000  1.0000
  Au  Au1       1.0  0.52310  0.84509  0.75000  1.0000
  Au  Au2       1.0  0.84509  0.52310  0.75000  1.0000
  Au  Au3       1.0  0.15491  0.47690  0.25000  1.0000
  Au  Au4       1.0  0.47690  0.15491  0.25000  1.0000
