data_image0
_chemical_formula_structural       F2Fe2
_chemical_formula_sum              "F2 Fe2"
_cell_length_a       2.71087
_cell_length_b       2.71087
_cell_length_c       7.15837
_cell_angle_alpha    90
_cell_angle_beta     90
_cell_angle_gamma    120

_space_group_name_H-M_alt    "P 1"
_space_group_IT_number       1

loop_
  _space_group_symop_operation_xyz
  'x, y, z'

loop_
  _atom_site_type_symbol
  _atom_site_label
  _atom_site_symmetry_multiplicity
  _atom_site_fract_x
  _atom_site_fract_y
  _atom_site_fract_z
  _atom_site_occupancy
  F   F1        1.0  0.66667  0.33333  0.53198  1.0000
  F   F2        1.0  0.33333  0.66667  0.03198  1.0000
  Fe  Fe1       1.0  0.66667  0.33333  0.81802  1.0000
  Fe  Fe2       1.0  0.33333  0.66667  0.31802  1.0000
