data_image0
_chemical_formula_structural       Fe2Hg4
_chemical_formula_sum              "Fe2 Hg4"
_cell_length_a       5.5557
_cell_length_b       5.5557
_cell_length_c       5.5557
_cell_angle_alpha    105.517
_cell_angle_beta     105.517
_cell_angle_gamma    117.708

_space_group_name_H-M_alt    "P 1"
_space_group_IT_number       1

loop_
  _space_group_symop_operation_xyz
  'x, y, z'

loop_
  _atom_site_type_symbol
  _atom_site_label
  _atom_site_symmetry_multiplicity
  _atom_site_fract_x
  _atom_site_fract_y
  _atom_site_fract_z
  _atom_site_occupancy
  Fe  Fe1       1.0  0.25000  0.25000  0.00000  1.0000
  Fe  Fe2       1.0  0.75000  0.75000  0.00000  1.0000
  Hg  Hg1       1.0  0.74681  0.24681  0.99362  1.0000
  Hg  Hg2       1.0  0.25319  0.75319  0.00638  1.0000
  Hg  Hg3       1.0  0.75319  0.74681  0.50000  1.0000
  Hg  Hg4       1.0  0.24681  0.25319  0.50000  1.0000
