data_image0
_chemical_formula_structural       Fe4N8
_chemical_formula_sum              "Fe4 N8"
_cell_length_a       2.76621
_cell_length_b       5.32555
_cell_length_c       6.58074
_cell_angle_alpha    90
_cell_angle_beta     90
_cell_angle_gamma    90

_space_group_name_H-M_alt    "P 1"
_space_group_IT_number       1

loop_
  _space_group_symop_operation_xyz
  'x, y, z'

loop_
  _atom_site_type_symbol
  _atom_site_label
  _atom_site_symmetry_multiplicity
  _atom_site_fract_x
  _atom_site_fract_y
  _atom_site_fract_z
  _atom_site_occupancy
  Fe  Fe1       1.0  0.75000  0.74371  0.07225  1.0000
  Fe  Fe2       1.0  0.25000  0.25629  0.92775  1.0000
  Fe  Fe3       1.0  0.75000  0.24371  0.42775  1.0000
  Fe  Fe4       1.0  0.25000  0.75629  0.57225  1.0000
  N   N1        1.0  0.75000  0.52215  0.62108  1.0000
  N   N2        1.0  0.25000  0.47785  0.37892  1.0000
  N   N3        1.0  0.75000  0.02215  0.87892  1.0000
  N   N4        1.0  0.25000  0.97785  0.12108  1.0000
  N   N5        1.0  0.75000  0.38387  0.11652  1.0000
  N   N6        1.0  0.25000  0.61613  0.88348  1.0000
  N   N7        1.0  0.75000  0.88387  0.38348  1.0000
  N   N8        1.0  0.25000  0.11613  0.61652  1.0000
