data_image0
_chemical_formula_structural       Fe6N20
_chemical_formula_sum              "Fe6 N20"
_cell_length_a       9.46465
_cell_length_b       9.46465
_cell_length_c       3.48433
_cell_angle_alpha    90
_cell_angle_beta     90
_cell_angle_gamma    120

_space_group_name_H-M_alt    "P 1"
_space_group_IT_number       1

loop_
  _space_group_symop_operation_xyz
  'x, y, z'

loop_
  _atom_site_type_symbol
  _atom_site_label
  _atom_site_symmetry_multiplicity
  _atom_site_fract_x
  _atom_site_fract_y
  _atom_site_fract_z
  _atom_site_occupancy
  Fe  Fe1       1.0  0.46425  0.57636  0.25000  1.0000
  Fe  Fe2       1.0  0.42364  0.88789  0.25000  1.0000
  Fe  Fe3       1.0  0.11211  0.53575  0.25000  1.0000
  Fe  Fe4       1.0  0.53575  0.42364  0.75000  1.0000
  Fe  Fe5       1.0  0.57636  0.11211  0.75000  1.0000
  Fe  Fe6       1.0  0.88789  0.46425  0.75000  1.0000
  N   N1        1.0  0.94555  0.13851  0.25000  1.0000
  N   N2        1.0  0.86149  0.80704  0.25000  1.0000
  N   N3        1.0  0.19296  0.05445  0.25000  1.0000
  N   N4        1.0  0.05445  0.86149  0.75000  1.0000
  N   N5        1.0  0.13851  0.19296  0.75000  1.0000
  N   N6        1.0  0.80704  0.94555  0.75000  1.0000
  N   N7        1.0  0.61216  0.07604  0.25000  1.0000
  N   N8        1.0  0.92396  0.53612  0.25000  1.0000
  N   N9        1.0  0.46388  0.38784  0.25000  1.0000
  N   N10       1.0  0.38784  0.92396  0.75000  1.0000
  N   N11       1.0  0.07604  0.46388  0.75000  1.0000
  N   N12       1.0  0.53612  0.61216  0.75000  1.0000
  N   N13       1.0  0.89549  0.22395  0.25000  1.0000
  N   N14       1.0  0.77605  0.67154  0.25000  1.0000
  N   N15       1.0  0.32846  0.10451  0.25000  1.0000
  N   N16       1.0  0.10451  0.77605  0.75000  1.0000
  N   N17       1.0  0.22395  0.32846  0.75000  1.0000
  N   N18       1.0  0.67154  0.89549  0.75000  1.0000
  N   N19       1.0  0.66667  0.33333  0.75000  1.0000
  N   N20       1.0  0.33333  0.66667  0.25000  1.0000
