data_image0
_chemical_formula_structural       Fe3N4
_chemical_formula_sum              "Fe3 N4"
_cell_length_a       5.31881
_cell_length_b       5.31881
_cell_length_c       4.81819
_cell_angle_alpha    64.4788
_cell_angle_beta     64.4788
_cell_angle_gamma    29.4309

_space_group_name_H-M_alt    "P 1"
_space_group_IT_number       1

loop_
  _space_group_symop_operation_xyz
  'x, y, z'

loop_
  _atom_site_type_symbol
  _atom_site_label
  _atom_site_symmetry_multiplicity
  _atom_site_fract_x
  _atom_site_fract_y
  _atom_site_fract_z
  _atom_site_occupancy
  Fe  Fe1       1.0  0.21631  0.21631  0.79797  1.0000
  Fe  Fe2       1.0  0.78369  0.78369  0.20203  1.0000
  Fe  Fe3       1.0  0.50000  0.50000  0.50000  1.0000
  N   N1        1.0  0.86922  0.86922  0.46779  1.0000
  N   N2        1.0  0.13078  0.13078  0.53221  1.0000
  N   N3        1.0  0.37755  0.37755  0.93642  1.0000
  N   N4        1.0  0.62245  0.62245  0.06358  1.0000
