data_image0
_chemical_formula_structural       N8Fe4
_chemical_formula_sum              "N8 Fe4"
_cell_length_a       9.1622
_cell_length_b       5.32448
_cell_length_c       9.01794
_cell_angle_alpha    50.1932
_cell_angle_beta     93.0057
_cell_angle_gamma    89.4452

_space_group_name_H-M_alt    "P 1"
_space_group_IT_number       1

loop_
  _space_group_symop_operation_xyz
  'x, y, z'

loop_
  _atom_site_type_symbol
  _atom_site_label
  _atom_site_symmetry_multiplicity
  _atom_site_fract_x
  _atom_site_fract_y
  _atom_site_fract_z
  _atom_site_occupancy
  N   N1        1.0  0.37262  0.33917  0.32787  1.0000
  N   N2        1.0  0.62335  0.31658  0.83941  1.0000
  N   N3        1.0  0.37242  0.74134  0.77418  1.0000
  N   N4        1.0  0.87687  0.25821  0.24922  1.0000
  N   N5        1.0  0.62842  0.75162  0.26422  1.0000
  N   N6        1.0  0.12239  0.24886  0.75439  1.0000
  N   N7        1.0  0.87380  0.75601  0.75070  1.0000
  N   N8        1.0  0.12126  0.75864  0.24869  1.0000
  Fe  Fe1       1.0  0.36734  0.00024  0.98848  1.0000
  Fe  Fe2       1.0  0.62425  0.00219  0.48337  1.0000
  Fe  Fe3       1.0  0.89012  0.99697  0.99147  1.0000
  Fe  Fe4       1.0  0.12716  0.99677  0.49462  1.0000
