data_image0
_chemical_formula_structural       Fe8N16
_chemical_formula_sum              "Fe8 N16"
_cell_length_a       6.59952
_cell_length_b       6.59952
_cell_length_c       5.62811
_cell_angle_alpha    90
_cell_angle_beta     90
_cell_angle_gamma    110.882

_space_group_name_H-M_alt    "P 1"
_space_group_IT_number       1

loop_
  _space_group_symop_operation_xyz
  'x, y, z'

loop_
  _atom_site_type_symbol
  _atom_site_label
  _atom_site_symmetry_multiplicity
  _atom_site_fract_x
  _atom_site_fract_y
  _atom_site_fract_z
  _atom_site_occupancy
  Fe  Fe1       1.0  0.15265  0.15265  0.81535  1.0000
  Fe  Fe2       1.0  0.34735  0.34735  0.31535  1.0000
  Fe  Fe3       1.0  0.65265  0.65265  0.68465  1.0000
  Fe  Fe4       1.0  0.84735  0.84735  0.18465  1.0000
  Fe  Fe5       1.0  0.23906  0.76094  0.50000  1.0000
  Fe  Fe6       1.0  0.26094  0.73906  0.00000  1.0000
  Fe  Fe7       1.0  0.76094  0.23906  0.50000  1.0000
  Fe  Fe8       1.0  0.73906  0.26094  0.00000  1.0000
  N   N1        1.0  0.42104  0.67096  0.25930  1.0000
  N   N2        1.0  0.07896  0.82904  0.75930  1.0000
  N   N3        1.0  0.17096  0.92104  0.24070  1.0000
  N   N4        1.0  0.32904  0.57896  0.74070  1.0000
  N   N5        1.0  0.57896  0.32904  0.74070  1.0000
  N   N6        1.0  0.92104  0.17096  0.24070  1.0000
  N   N7        1.0  0.82904  0.07896  0.75930  1.0000
  N   N8        1.0  0.67096  0.42104  0.25930  1.0000
  N   N9        1.0  0.06971  0.30572  0.11682  1.0000
  N   N10       1.0  0.43029  0.19428  0.61682  1.0000
  N   N11       1.0  0.80572  0.56971  0.38318  1.0000
  N   N12       1.0  0.69428  0.93029  0.88318  1.0000
  N   N13       1.0  0.93029  0.69428  0.88318  1.0000
  N   N14       1.0  0.56971  0.80572  0.38318  1.0000
  N   N15       1.0  0.19428  0.43029  0.61682  1.0000
  N   N16       1.0  0.30572  0.06971  0.11682  1.0000
