data_image0
_chemical_formula_structural       Hg4Fe4
_chemical_formula_sum              "Hg4 Fe4"
_cell_length_a       5.1831
_cell_length_b       5.1831
_cell_length_c       5.1831
_cell_angle_alpha    90
_cell_angle_beta     90
_cell_angle_gamma    90

_space_group_name_H-M_alt    "P 1"
_space_group_IT_number       1

loop_
  _space_group_symop_operation_xyz
  'x, y, z'

loop_
  _atom_site_type_symbol
  _atom_site_label
  _atom_site_symmetry_multiplicity
  _atom_site_fract_x
  _atom_site_fract_y
  _atom_site_fract_z
  _atom_site_occupancy
  Hg  Hg1       1.0  0.84359  0.84359  0.84359  1.0000
  Hg  Hg2       1.0  0.65641  0.15641  0.34359  1.0000
  Hg  Hg3       1.0  0.34359  0.65641  0.15641  1.0000
  Hg  Hg4       1.0  0.15641  0.34359  0.65641  1.0000
  Fe  Fe1       1.0  0.14989  0.14989  0.14989  1.0000
  Fe  Fe2       1.0  0.35011  0.85011  0.64989  1.0000
  Fe  Fe3       1.0  0.64989  0.35011  0.85011  1.0000
  Fe  Fe4       1.0  0.85011  0.64989  0.35011  1.0000
