data_image0
_chemical_formula_structural       I2Fe2
_chemical_formula_sum              "I2 Fe2"
_cell_length_a       4.33268
_cell_length_b       4.33268
_cell_length_c       7.10329
_cell_angle_alpha    90
_cell_angle_beta     90
_cell_angle_gamma    120

_space_group_name_H-M_alt    "P 1"
_space_group_IT_number       1

loop_
  _space_group_symop_operation_xyz
  'x, y, z'

loop_
  _atom_site_type_symbol
  _atom_site_label
  _atom_site_symmetry_multiplicity
  _atom_site_fract_x
  _atom_site_fract_y
  _atom_site_fract_z
  _atom_site_occupancy
  I   I1        1.0  0.66667  0.33333  0.48773  1.0000
  I   I2        1.0  0.33333  0.66667  0.98773  1.0000
  Fe  Fe1       1.0  0.66667  0.33333  0.86227  1.0000
  Fe  Fe2       1.0  0.33333  0.66667  0.36227  1.0000
