data_image0
_chemical_formula_structural       FeHg4
_chemical_formula_sum              "Fe1 Hg4"
_cell_length_a       5.44563
_cell_length_b       5.44563
_cell_length_c       5.44563
_cell_angle_alpha    99.4558
_cell_angle_beta     99.4558
_cell_angle_gamma    132.177

_space_group_name_H-M_alt    "P 1"
_space_group_IT_number       1

loop_
  _space_group_symop_operation_xyz
  'x, y, z'

loop_
  _atom_site_type_symbol
  _atom_site_label
  _atom_site_symmetry_multiplicity
  _atom_site_fract_x
  _atom_site_fract_y
  _atom_site_fract_z
  _atom_site_occupancy
  Fe  Fe1       1.0  0.00000  0.00000  0.00000  1.0000
  Hg  Hg1       1.0  0.60328  0.21014  0.81341  1.0000
  Hg  Hg2       1.0  0.39672  0.78986  0.18659  1.0000
  Hg  Hg3       1.0  0.78986  0.60328  0.39314  1.0000
  Hg  Hg4       1.0  0.21014  0.39672  0.60686  1.0000
