data_image0
_chemical_formula_structural       Fe8Hg16
_chemical_formula_sum              "Fe8 Hg16"
_cell_length_a       7.79888
_cell_length_b       7.79888
_cell_length_c       9.18899
_cell_angle_alpha    90
_cell_angle_beta     90
_cell_angle_gamma    110.1

_space_group_name_H-M_alt    "P 1"
_space_group_IT_number       1

loop_
  _space_group_symop_operation_xyz
  'x, y, z'

loop_
  _atom_site_type_symbol
  _atom_site_label
  _atom_site_symmetry_multiplicity
  _atom_site_fract_x
  _atom_site_fract_y
  _atom_site_fract_z
  _atom_site_occupancy
  Fe  Fe1       1.0  0.24955  0.24955  0.74898  1.0000
  Fe  Fe2       1.0  0.25045  0.25045  0.24898  1.0000
  Fe  Fe3       1.0  0.74955  0.74955  0.75102  1.0000
  Fe  Fe4       1.0  0.75045  0.75045  0.25102  1.0000
  Fe  Fe5       1.0  0.24940  0.75060  0.50000  1.0000
  Fe  Fe6       1.0  0.25060  0.74940  0.00000  1.0000
  Fe  Fe7       1.0  0.75060  0.24940  0.50000  1.0000
  Fe  Fe8       1.0  0.74940  0.25060  0.00000  1.0000
  Hg  Hg1       1.0  0.37340  0.62840  0.25080  1.0000
  Hg  Hg2       1.0  0.12660  0.87160  0.75080  1.0000
  Hg  Hg3       1.0  0.12840  0.87340  0.24920  1.0000
  Hg  Hg4       1.0  0.37160  0.62660  0.74920  1.0000
  Hg  Hg5       1.0  0.62660  0.37160  0.74920  1.0000
  Hg  Hg6       1.0  0.87340  0.12840  0.24920  1.0000
  Hg  Hg7       1.0  0.87160  0.12660  0.75080  1.0000
  Hg  Hg8       1.0  0.62840  0.37340  0.25080  1.0000
  Hg  Hg9       1.0  0.12767  0.37212  0.99931  1.0000
  Hg  Hg10      1.0  0.37233  0.12788  0.49931  1.0000
  Hg  Hg11      1.0  0.87212  0.62767  0.50069  1.0000
  Hg  Hg12      1.0  0.62788  0.87233  0.00069  1.0000
  Hg  Hg13      1.0  0.87233  0.62788  0.00069  1.0000
  Hg  Hg14      1.0  0.62767  0.87212  0.50069  1.0000
  Hg  Hg15      1.0  0.12788  0.37233  0.49931  1.0000
  Hg  Hg16      1.0  0.37212  0.12767  0.99931  1.0000
