data_image0
_chemical_formula_structural       Fe2N6
_chemical_formula_sum              "Fe2 N6"
_cell_length_a       6.27444
_cell_length_b       2.67335
_cell_length_c       5.13996
_cell_angle_alpha    90
_cell_angle_beta     90
_cell_angle_gamma    90

_space_group_name_H-M_alt    "P 1"
_space_group_IT_number       1

loop_
  _space_group_symop_operation_xyz
  'x, y, z'

loop_
  _atom_site_type_symbol
  _atom_site_label
  _atom_site_symmetry_multiplicity
  _atom_site_fract_x
  _atom_site_fract_y
  _atom_site_fract_z
  _atom_site_occupancy
  Fe  Fe1       1.0  0.50000  0.72708  0.50000  1.0000
  Fe  Fe2       1.0  0.00000  0.27292  0.00000  1.0000
  N   N1        1.0  0.50000  0.22811  0.76308  1.0000
  N   N2        1.0  0.50000  0.22811  0.23692  1.0000
  N   N3        1.0  0.00000  0.77189  0.73692  1.0000
  N   N4        1.0  0.00000  0.77189  0.26308  1.0000
  N   N5        1.0  0.00000  0.76785  0.50000  1.0000
  N   N6        1.0  0.50000  0.23215  0.00000  1.0000
