data_image0
_chemical_formula_structural       Fe10Hg6
_chemical_formula_sum              "Fe10 Hg6"
_cell_length_a       7.63803
_cell_length_b       7.63803
_cell_length_c       7.63803
_cell_angle_alpha    96.4038
_cell_angle_beta     96.4038
_cell_angle_gamma    140.98

_space_group_name_H-M_alt    "P 1"
_space_group_IT_number       1

loop_
  _space_group_symop_operation_xyz
  'x, y, z'

loop_
  _atom_site_type_symbol
  _atom_site_label
  _atom_site_symmetry_multiplicity
  _atom_site_fract_x
  _atom_site_fract_y
  _atom_site_fract_z
  _atom_site_occupancy
  Fe  Fe1       1.0  0.56767  0.22887  0.79654  1.0000
  Fe  Fe2       1.0  0.43233  0.77113  0.20346  1.0000
  Fe  Fe3       1.0  0.77113  0.56767  0.33880  1.0000
  Fe  Fe4       1.0  0.22887  0.43233  0.66120  1.0000
  Fe  Fe5       1.0  0.93233  0.72887  0.66120  1.0000
  Fe  Fe6       1.0  0.27113  0.93233  0.20346  1.0000
  Fe  Fe7       1.0  0.25000  0.75000  0.50000  1.0000
  Fe  Fe8       1.0  0.75000  0.25000  0.50000  1.0000
  Fe  Fe9       1.0  0.06767  0.27113  0.33880  1.0000
  Fe  Fe10      1.0  0.72887  0.06767  0.79654  1.0000
  Hg  Hg1       1.0  0.81657  0.31657  0.13314  1.0000
  Hg  Hg2       1.0  0.68343  0.81657  0.50000  1.0000
  Hg  Hg3       1.0  0.31657  0.18343  0.50000  1.0000
  Hg  Hg4       1.0  0.18343  0.68343  0.86686  1.0000
  Hg  Hg5       1.0  0.75000  0.75000  0.00000  1.0000
  Hg  Hg6       1.0  0.25000  0.25000  0.00000  1.0000
