data_image0
_chemical_formula_structural       FeS5
_chemical_formula_sum              "Fe1 S5"
_cell_length_a       4.78914
_cell_length_b       4.78914
_cell_length_c       4.78914
_cell_angle_alpha    89.6066
_cell_angle_beta     89.6066
_cell_angle_gamma    89.6066

_space_group_name_H-M_alt    "P 1"
_space_group_IT_number       1

loop_
  _space_group_symop_operation_xyz
  'x, y, z'

loop_
  _atom_site_type_symbol
  _atom_site_label
  _atom_site_symmetry_multiplicity
  _atom_site_fract_x
  _atom_site_fract_y
  _atom_site_fract_z
  _atom_site_occupancy
  Fe  Fe1       1.0  0.00000  0.00000  0.00000  1.0000
  S   S1        1.0  0.67800  0.67800  0.67800  1.0000
  S   S2        1.0  0.00117  0.50000  0.99883  1.0000
  S   S3        1.0  0.50000  0.99883  0.00117  1.0000
  S   S4        1.0  0.99883  0.00117  0.50000  1.0000
  S   S5        1.0  0.32200  0.32200  0.32200  1.0000
