data_image0
_chemical_formula_structural       Fe10N6
_chemical_formula_sum              "Fe10 N6"
_cell_length_a       5.94303
_cell_length_b       5.94303
_cell_length_c       5.94303
_cell_angle_alpha    101.242
_cell_angle_beta     101.242
_cell_angle_gamma    127.596

_space_group_name_H-M_alt    "P 1"
_space_group_IT_number       1

loop_
  _space_group_symop_operation_xyz
  'x, y, z'

loop_
  _atom_site_type_symbol
  _atom_site_label
  _atom_site_symmetry_multiplicity
  _atom_site_fract_x
  _atom_site_fract_y
  _atom_site_fract_z
  _atom_site_occupancy
  Fe  Fe1       1.0  0.56385  0.28616  0.85001  1.0000
  Fe  Fe2       1.0  0.43615  0.71384  0.14999  1.0000
  Fe  Fe3       1.0  0.71384  0.56385  0.27770  1.0000
  Fe  Fe4       1.0  0.28616  0.43615  0.72230  1.0000
  Fe  Fe5       1.0  0.93615  0.78616  0.72230  1.0000
  Fe  Fe6       1.0  0.21384  0.93615  0.14999  1.0000
  Fe  Fe7       1.0  0.25000  0.75000  0.50000  1.0000
  Fe  Fe8       1.0  0.75000  0.25000  0.50000  1.0000
  Fe  Fe9       1.0  0.06385  0.21384  0.27770  1.0000
  Fe  Fe10      1.0  0.78616  0.06385  0.85001  1.0000
  N   N1        1.0  0.85336  0.35336  0.20672  1.0000
  N   N2        1.0  0.64664  0.85336  0.50000  1.0000
  N   N3        1.0  0.35336  0.14664  0.50000  1.0000
  N   N4        1.0  0.14664  0.64664  0.79328  1.0000
  N   N5        1.0  0.75000  0.75000  0.00000  1.0000
  N   N6        1.0  0.25000  0.25000  0.00000  1.0000
