data_image0
_chemical_formula_structural       Fe9N8
_chemical_formula_sum              "Fe9 N8"
_cell_length_a       6.23297
_cell_length_b       6.23297
_cell_length_c       6.23297
_cell_angle_alpha    60
_cell_angle_beta     60
_cell_angle_gamma    60

_space_group_name_H-M_alt    "P 1"
_space_group_IT_number       1

loop_
  _space_group_symop_operation_xyz
  'x, y, z'

loop_
  _atom_site_type_symbol
  _atom_site_label
  _atom_site_symmetry_multiplicity
  _atom_site_fract_x
  _atom_site_fract_y
  _atom_site_fract_z
  _atom_site_occupancy
  Fe  Fe1       1.0  0.50000  0.50000  0.50000  1.0000
  Fe  Fe2       1.0  0.86506  0.40481  0.86506  1.0000
  Fe  Fe3       1.0  0.13494  0.13494  0.59519  1.0000
  Fe  Fe4       1.0  0.59519  0.13494  0.13494  1.0000
  Fe  Fe5       1.0  0.13494  0.13494  0.13494  1.0000
  Fe  Fe6       1.0  0.40481  0.86506  0.86506  1.0000
  Fe  Fe7       1.0  0.86506  0.86506  0.86506  1.0000
  Fe  Fe8       1.0  0.86506  0.86506  0.40481  1.0000
  Fe  Fe9       1.0  0.13494  0.59519  0.13494  1.0000
  N   N1        1.0  0.75000  0.75000  0.75000  1.0000
  N   N2        1.0  0.25000  0.25000  0.25000  1.0000
  N   N3        1.0  0.24442  0.24442  0.75558  1.0000
  N   N4        1.0  0.24442  0.75558  0.75558  1.0000
  N   N5        1.0  0.75558  0.24442  0.24442  1.0000
  N   N6        1.0  0.24442  0.75558  0.24442  1.0000
  N   N7        1.0  0.75558  0.24442  0.75558  1.0000
  N   N8        1.0  0.75558  0.75558  0.24442  1.0000
