data_image0
_chemical_formula_structural       I8Fe12
_chemical_formula_sum              "I8 Fe12"
_cell_length_a       6.45686
_cell_length_b       6.45773
_cell_length_c       13.297
_cell_angle_alpha    89.9614
_cell_angle_beta     90.0375
_cell_angle_gamma    120.056

_space_group_name_H-M_alt    "P 1"
_space_group_IT_number       1

loop_
  _space_group_symop_operation_xyz
  'x, y, z'

loop_
  _atom_site_type_symbol
  _atom_site_label
  _atom_site_symmetry_multiplicity
  _atom_site_fract_x
  _atom_site_fract_y
  _atom_site_fract_z
  _atom_site_occupancy
  I   I1        1.0  0.00020  0.99987  0.24986  1.0000
  I   I2        1.0  0.99970  0.00021  0.74981  1.0000
  I   I3        1.0  0.33335  0.66670  0.25043  1.0000
  I   I4        1.0  0.66656  0.33344  0.75085  1.0000
  I   I5        1.0  0.33329  0.66672  0.55640  1.0000
  I   I6        1.0  0.66662  0.33339  0.05636  1.0000
  I   I7        1.0  0.66664  0.33339  0.44397  1.0000
  I   I8        1.0  0.33323  0.66673  0.94386  1.0000
  Fe  Fe1       1.0  0.12836  0.25597  0.42741  1.0000
  Fe  Fe2       1.0  0.12801  0.87217  0.42759  1.0000
  Fe  Fe3       1.0  0.74406  0.87175  0.42739  1.0000
  Fe  Fe4       1.0  0.87177  0.12803  0.92736  1.0000
  Fe  Fe5       1.0  0.25627  0.12837  0.92727  1.0000
  Fe  Fe6       1.0  0.87151  0.74368  0.92729  1.0000
  Fe  Fe7       1.0  0.87199  0.74409  0.57238  1.0000
  Fe  Fe8       1.0  0.87220  0.12786  0.57215  1.0000
  Fe  Fe9       1.0  0.25607  0.12812  0.57242  1.0000
  Fe  Fe10      1.0  0.12797  0.87194  0.07235  1.0000
  Fe  Fe11      1.0  0.74381  0.87152  0.07244  1.0000
  Fe  Fe12      1.0  0.12837  0.25607  0.07241  1.0000
