data_image0
_chemical_formula_structural       N4Fe2
_chemical_formula_sum              "N4 Fe2"
_cell_length_a       4.54122
_cell_length_b       4.54122
_cell_length_c       4.54122
_cell_angle_alpha    91.0601
_cell_angle_beta     128.638
_cell_angle_gamma    110.922

_space_group_name_H-M_alt    "P 1"
_space_group_IT_number       1

loop_
  _space_group_symop_operation_xyz
  'x, y, z'

loop_
  _atom_site_type_symbol
  _atom_site_label
  _atom_site_symmetry_multiplicity
  _atom_site_fract_x
  _atom_site_fract_y
  _atom_site_fract_z
  _atom_site_occupancy
  N   N1        1.0  0.34451  0.00053  0.34503  1.0000
  N   N2        1.0  0.15549  0.50053  0.65602  1.0000
  N   N3        1.0  0.84447  0.49983  0.34430  1.0000
  N   N4        1.0  0.65553  0.99983  0.65535  1.0000
  Fe  Fe1       1.0  0.75000  0.74965  0.99965  1.0000
  Fe  Fe2       1.0  0.25000  0.24965  0.99965  1.0000
