data_image0
_chemical_formula_structural       Fe4N12
_chemical_formula_sum              "Fe4 N12"
_cell_length_a       6.25535
_cell_length_b       6.25535
_cell_length_c       5.50211
_cell_angle_alpha    90
_cell_angle_beta     90
_cell_angle_gamma    127.774

_space_group_name_H-M_alt    "P 1"
_space_group_IT_number       1

loop_
  _space_group_symop_operation_xyz
  'x, y, z'

loop_
  _atom_site_type_symbol
  _atom_site_label
  _atom_site_symmetry_multiplicity
  _atom_site_fract_x
  _atom_site_fract_y
  _atom_site_fract_z
  _atom_site_occupancy
  Fe  Fe1       1.0  0.78476  0.21524  0.00000  1.0000
  Fe  Fe2       1.0  0.21524  0.78476  0.00000  1.0000
  Fe  Fe3       1.0  0.28476  0.71524  0.50000  1.0000
  Fe  Fe4       1.0  0.71524  0.28476  0.50000  1.0000
  N   N1        1.0  0.57130  0.57130  0.07126  1.0000
  N   N2        1.0  0.07130  0.07130  0.42874  1.0000
  N   N3        1.0  0.92870  0.92870  0.57126  1.0000
  N   N4        1.0  0.44908  0.55092  0.50000  1.0000
  N   N5        1.0  0.99884  0.49884  0.75000  1.0000
  N   N6        1.0  0.94908  0.05092  0.00000  1.0000
  N   N7        1.0  0.00116  0.50116  0.25000  1.0000
  N   N8        1.0  0.42870  0.42870  0.92874  1.0000
  N   N9        1.0  0.55092  0.44908  0.50000  1.0000
  N   N10       1.0  0.05092  0.94908  0.00000  1.0000
  N   N11       1.0  0.50116  0.00116  0.25000  1.0000
  N   N12       1.0  0.49884  0.99884  0.75000  1.0000
