data_image0
_chemical_formula_structural       Fe12I16
_chemical_formula_sum              "Fe12 I16"
_cell_length_a       11.7865
_cell_length_b       11.7865
_cell_length_c       8.5405
_cell_angle_alpha    90
_cell_angle_beta     90
_cell_angle_gamma    120

_space_group_name_H-M_alt    "P 1"
_space_group_IT_number       1

loop_
  _space_group_symop_operation_xyz
  'x, y, z'

loop_
  _atom_site_type_symbol
  _atom_site_label
  _atom_site_symmetry_multiplicity
  _atom_site_fract_x
  _atom_site_fract_y
  _atom_site_fract_z
  _atom_site_occupancy
  Fe  Fe1       1.0  0.56296  0.08154  0.80216  1.0000
  Fe  Fe2       1.0  0.51858  0.43704  0.80216  1.0000
  Fe  Fe3       1.0  0.91846  0.48142  0.80216  1.0000
  Fe  Fe4       1.0  0.43704  0.51858  0.30216  1.0000
  Fe  Fe5       1.0  0.48142  0.91846  0.30216  1.0000
  Fe  Fe6       1.0  0.08154  0.56296  0.30216  1.0000
  Fe  Fe7       1.0  0.08899  0.25525  0.01398  1.0000
  Fe  Fe8       1.0  0.16626  0.91101  0.01398  1.0000
  Fe  Fe9       1.0  0.74475  0.83374  0.01398  1.0000
  Fe  Fe10      1.0  0.91101  0.16626  0.51398  1.0000
  Fe  Fe11      1.0  0.83374  0.74475  0.51398  1.0000
  Fe  Fe12      1.0  0.25525  0.08899  0.51398  1.0000
  I   I1        1.0  0.04109  0.65182  0.03484  1.0000
  I   I2        1.0  0.61073  0.95891  0.03484  1.0000
  I   I3        1.0  0.34818  0.38927  0.03484  1.0000
  I   I4        1.0  0.95891  0.61073  0.53484  1.0000
  I   I5        1.0  0.38927  0.34818  0.53484  1.0000
  I   I6        1.0  0.65182  0.04109  0.53484  1.0000
  I   I7        1.0  0.02335  0.33062  0.75246  1.0000
  I   I8        1.0  0.30727  0.97665  0.75246  1.0000
  I   I9        1.0  0.66938  0.69273  0.75246  1.0000
  I   I10       1.0  0.97665  0.30727  0.25246  1.0000
  I   I11       1.0  0.69273  0.66938  0.25246  1.0000
  I   I12       1.0  0.33062  0.02335  0.25246  1.0000
  I   I13       1.0  0.00000  0.00000  0.01942  1.0000
  I   I14       1.0  0.00000  0.00000  0.51942  1.0000
  I   I15       1.0  0.33333  0.66667  0.38463  1.0000
  I   I16       1.0  0.66667  0.33333  0.88463  1.0000
