data_image0
_chemical_formula_structural       Hg8Fe4
_chemical_formula_sum              "Hg8 Fe4"
_cell_length_a       9.0655
_cell_length_b       4.54729
_cell_length_c       7.77194
_cell_angle_alpha    55.2835
_cell_angle_beta     89.9977
_cell_angle_gamma    89.9926

_space_group_name_H-M_alt    "P 1"
_space_group_IT_number       1

loop_
  _space_group_symop_operation_xyz
  'x, y, z'

loop_
  _atom_site_type_symbol
  _atom_site_label
  _atom_site_symmetry_multiplicity
  _atom_site_fract_x
  _atom_site_fract_y
  _atom_site_fract_z
  _atom_site_occupancy
  Hg  Hg1       1.0  0.37618  0.27074  0.26429  1.0000
  Hg  Hg2       1.0  0.62378  0.27070  0.76425  1.0000
  Hg  Hg3       1.0  0.37445  0.76111  0.76559  1.0000
  Hg  Hg4       1.0  0.87450  0.26643  0.26298  1.0000
  Hg  Hg5       1.0  0.62560  0.76108  0.26553  1.0000
  Hg  Hg6       1.0  0.12549  0.26639  0.76299  1.0000
  Hg  Hg7       1.0  0.87556  0.75751  0.76270  1.0000
  Hg  Hg8       1.0  0.12441  0.75761  0.26265  1.0000
  Fe  Fe1       1.0  0.37528  0.01581  0.01540  1.0000
  Fe  Fe2       1.0  0.62475  0.01571  0.51540  1.0000
  Fe  Fe3       1.0  0.87448  0.01181  0.01237  1.0000
  Fe  Fe4       1.0  0.12552  0.01170  0.51246  1.0000
