data_image0
_chemical_formula_structural       Ga4I12
_chemical_formula_sum              "Ga4 I12"
_cell_length_a       16.5444
_cell_length_b       16.5444
_cell_length_c       5.89714
_cell_angle_alpha    90
_cell_angle_beta     90
_cell_angle_gamma    153.23

_space_group_name_H-M_alt    "P 1"
_space_group_IT_number       1

loop_
  _space_group_symop_operation_xyz
  'x, y, z'

loop_
  _atom_site_type_symbol
  _atom_site_label
  _atom_site_symmetry_multiplicity
  _atom_site_fract_x
  _atom_site_fract_y
  _atom_site_fract_z
  _atom_site_occupancy
  Ga  Ga1       1.0  0.66120  0.33880  0.00000  1.0000
  Ga  Ga2       1.0  0.33880  0.66120  0.00000  1.0000
  Ga  Ga3       1.0  0.16120  0.83880  0.50000  1.0000
  Ga  Ga4       1.0  0.83880  0.16120  0.50000  1.0000
  I   I1        1.0  0.62352  0.62352  0.17274  1.0000
  I   I2        1.0  0.12352  0.12352  0.32726  1.0000
  I   I3        1.0  0.87648  0.87648  0.67274  1.0000
  I   I4        1.0  0.36512  0.63488  0.50000  1.0000
  I   I5        1.0  0.99995  0.49995  0.75000  1.0000
  I   I6        1.0  0.86512  0.13488  0.00000  1.0000
  I   I7        1.0  0.00005  0.50005  0.25000  1.0000
  I   I8        1.0  0.37648  0.37648  0.82726  1.0000
  I   I9        1.0  0.63488  0.36512  0.50000  1.0000
  I   I10       1.0  0.13488  0.86512  0.00000  1.0000
  I   I11       1.0  0.50005  0.00005  0.25000  1.0000
  I   I12       1.0  0.49995  0.99995  0.75000  1.0000
