data_image0
_chemical_formula_structural       Hg10Ga6
_chemical_formula_sum              "Hg10 Ga6"
_cell_length_a       8.59848
_cell_length_b       8.59848
_cell_length_c       8.59848
_cell_angle_alpha    127.901
_cell_angle_beta     127.901
_cell_angle_gamma    76.7847

_space_group_name_H-M_alt    "P 1"
_space_group_IT_number       1

loop_
  _space_group_symop_operation_xyz
  'x, y, z'

loop_
  _atom_site_type_symbol
  _atom_site_label
  _atom_site_symmetry_multiplicity
  _atom_site_fract_x
  _atom_site_fract_y
  _atom_site_fract_z
  _atom_site_occupancy
  Hg  Hg1       1.0  0.49969  0.68331  0.50000  1.0000
  Hg  Hg2       1.0  0.50031  0.31669  0.50000  1.0000
  Hg  Hg3       1.0  0.50000  0.50000  0.00000  1.0000
  Hg  Hg4       1.0  0.00000  0.00000  0.00000  1.0000
  Hg  Hg5       1.0  0.18331  0.99969  0.50000  1.0000
  Hg  Hg6       1.0  0.99969  0.49969  0.81638  1.0000
  Hg  Hg7       1.0  0.68331  0.18331  0.18362  1.0000
  Hg  Hg8       1.0  0.31669  0.81669  0.81638  1.0000
  Hg  Hg9       1.0  0.00031  0.50031  0.18362  1.0000
  Hg  Hg10      1.0  0.81669  0.00031  0.50000  1.0000
  Ga  Ga1       1.0  0.86285  0.63715  0.50000  1.0000
  Ga  Ga2       1.0  0.63715  0.13715  0.77430  1.0000
  Ga  Ga3       1.0  0.36285  0.86285  0.22570  1.0000
  Ga  Ga4       1.0  0.13715  0.36285  0.50000  1.0000
  Ga  Ga5       1.0  0.25000  0.25000  0.00000  1.0000
  Ga  Ga6       1.0  0.75000  0.75000  0.00000  1.0000
