data_image0
_chemical_formula_structural       Au10Ga6
_chemical_formula_sum              "Au10 Ga6"
_cell_length_a       7.75514
_cell_length_b       7.75514
_cell_length_c       7.75514
_cell_angle_alpha    126.829
_cell_angle_beta     126.829
_cell_angle_gamma    78.5304

_space_group_name_H-M_alt    "P 1"
_space_group_IT_number       1

loop_
  _space_group_symop_operation_xyz
  'x, y, z'

loop_
  _atom_site_type_symbol
  _atom_site_label
  _atom_site_symmetry_multiplicity
  _atom_site_fract_x
  _atom_site_fract_y
  _atom_site_fract_z
  _atom_site_occupancy
  Au  Au1       1.0  0.49235  0.68722  0.50000  1.0000
  Au  Au2       1.0  0.50765  0.31278  0.50000  1.0000
  Au  Au3       1.0  0.50000  0.50000  0.00000  1.0000
  Au  Au4       1.0  0.00000  0.00000  0.00000  1.0000
  Au  Au5       1.0  0.18722  0.99235  0.50000  1.0000
  Au  Au6       1.0  0.99235  0.49235  0.80513  1.0000
  Au  Au7       1.0  0.68722  0.18722  0.19487  1.0000
  Au  Au8       1.0  0.31278  0.81278  0.80513  1.0000
  Au  Au9       1.0  0.00765  0.50765  0.19487  1.0000
  Au  Au10      1.0  0.81278  0.00765  0.50000  1.0000
  Ga  Ga1       1.0  0.85557  0.64443  0.50000  1.0000
  Ga  Ga2       1.0  0.64443  0.14443  0.78886  1.0000
  Ga  Ga3       1.0  0.35557  0.85557  0.21114  1.0000
  Ga  Ga4       1.0  0.14443  0.35557  0.50000  1.0000
  Ga  Ga5       1.0  0.25000  0.25000  0.00000  1.0000
  Ga  Ga6       1.0  0.75000  0.75000  0.00000  1.0000
