data_image0
_chemical_formula_structural       FeSe4
_chemical_formula_sum              "Fe1 Se4"
_cell_length_a       6.08026
_cell_length_b       6.08026
_cell_length_c       6.08026
_cell_angle_alpha    94.1938
_cell_angle_beta     94.1938
_cell_angle_gamma    148.621

_space_group_name_H-M_alt    "P 1"
_space_group_IT_number       1

loop_
  _space_group_symop_operation_xyz
  'x, y, z'

loop_
  _atom_site_type_symbol
  _atom_site_label
  _atom_site_symmetry_multiplicity
  _atom_site_fract_x
  _atom_site_fract_y
  _atom_site_fract_z
  _atom_site_occupancy
  Fe  Fe1       1.0  0.00000  0.00000  0.00000  1.0000
  Se  Se1       1.0  0.58615  0.29286  0.87901  1.0000
  Se  Se2       1.0  0.41385  0.70714  0.12099  1.0000
  Se  Se3       1.0  0.70714  0.58615  0.29329  1.0000
  Se  Se4       1.0  0.29286  0.41385  0.70671  1.0000
