data_image0
_chemical_formula_structural       Fe4Se12
_chemical_formula_sum              "Fe4 Se12"
_cell_length_a       8.28278
_cell_length_b       8.28278
_cell_length_c       4.95971
_cell_angle_alpha    90
_cell_angle_beta     90
_cell_angle_gamma    112.053

_space_group_name_H-M_alt    "P 1"
_space_group_IT_number       1

loop_
  _space_group_symop_operation_xyz
  'x, y, z'

loop_
  _atom_site_type_symbol
  _atom_site_label
  _atom_site_symmetry_multiplicity
  _atom_site_fract_x
  _atom_site_fract_y
  _atom_site_fract_z
  _atom_site_occupancy
  Fe  Fe1       1.0  0.62379  0.37621  0.00000  1.0000
  Fe  Fe2       1.0  0.37621  0.62379  0.00000  1.0000
  Fe  Fe3       1.0  0.12379  0.87621  0.50000  1.0000
  Fe  Fe4       1.0  0.87621  0.12379  0.50000  1.0000
  Se  Se1       1.0  0.67254  0.67254  0.99143  1.0000
  Se  Se2       1.0  0.17254  0.17254  0.50857  1.0000
  Se  Se3       1.0  0.82746  0.82746  0.49143  1.0000
  Se  Se4       1.0  0.39581  0.60419  0.50000  1.0000
  Se  Se5       1.0  0.87761  0.37761  0.75000  1.0000
  Se  Se6       1.0  0.89581  0.10419  0.00000  1.0000
  Se  Se7       1.0  0.12239  0.62239  0.25000  1.0000
  Se  Se8       1.0  0.32746  0.32746  0.00857  1.0000
  Se  Se9       1.0  0.60419  0.39581  0.50000  1.0000
  Se  Se10      1.0  0.10419  0.89581  0.00000  1.0000
  Se  Se11      1.0  0.62239  0.12239  0.25000  1.0000
  Se  Se12      1.0  0.37761  0.87761  0.75000  1.0000
