data_image0
_chemical_formula_structural       GaHg4
_chemical_formula_sum              "Ga1 Hg4"
_cell_length_a       5.77351
_cell_length_b       5.77351
_cell_length_c       5.77351
_cell_angle_alpha    99.1846
_cell_angle_beta     99.1846
_cell_angle_gamma    132.904

_space_group_name_H-M_alt    "P 1"
_space_group_IT_number       1

loop_
  _space_group_symop_operation_xyz
  'x, y, z'

loop_
  _atom_site_type_symbol
  _atom_site_label
  _atom_site_symmetry_multiplicity
  _atom_site_fract_x
  _atom_site_fract_y
  _atom_site_fract_z
  _atom_site_occupancy
  Ga  Ga1       1.0  0.00000  0.00000  0.00000  1.0000
  Hg  Hg1       1.0  0.60222  0.79605  0.39828  1.0000
  Hg  Hg2       1.0  0.39778  0.20395  0.60172  1.0000
  Hg  Hg3       1.0  0.20395  0.60222  0.80617  1.0000
  Hg  Hg4       1.0  0.79605  0.39778  0.19383  1.0000
