data_image0
_chemical_formula_structural       Fe8S12
_chemical_formula_sum              "Fe8 S12"
_cell_length_a       3.16056
_cell_length_b       8.01641
_cell_length_c       14.6146
_cell_angle_alpha    90
_cell_angle_beta     90
_cell_angle_gamma    90

_space_group_name_H-M_alt    "P 1"
_space_group_IT_number       1

loop_
  _space_group_symop_operation_xyz
  'x, y, z'

loop_
  _atom_site_type_symbol
  _atom_site_label
  _atom_site_symmetry_multiplicity
  _atom_site_fract_x
  _atom_site_fract_y
  _atom_site_fract_z
  _atom_site_occupancy
  Fe  Fe1       1.0  0.25000  0.92528  0.93670  1.0000
  Fe  Fe2       1.0  0.75000  0.07472  0.06330  1.0000
  Fe  Fe3       1.0  0.75000  0.42528  0.56330  1.0000
  Fe  Fe4       1.0  0.25000  0.57472  0.43670  1.0000
  Fe  Fe5       1.0  0.25000  0.10964  0.54488  1.0000
  Fe  Fe6       1.0  0.75000  0.89036  0.45512  1.0000
  Fe  Fe7       1.0  0.75000  0.60964  0.95512  1.0000
  Fe  Fe8       1.0  0.25000  0.39036  0.04488  1.0000
  S   S1        1.0  0.25000  0.30174  0.64691  1.0000
  S   S2        1.0  0.75000  0.69826  0.35309  1.0000
  S   S3        1.0  0.75000  0.80174  0.85309  1.0000
  S   S4        1.0  0.25000  0.19826  0.14691  1.0000
  S   S5        1.0  0.25000  0.03665  0.39983  1.0000
  S   S6        1.0  0.75000  0.96335  0.60017  1.0000
  S   S7        1.0  0.75000  0.53665  0.10017  1.0000
  S   S8        1.0  0.25000  0.46335  0.89983  1.0000
  S   S9        1.0  0.25000  0.88148  0.07965  1.0000
  S   S10       1.0  0.75000  0.11852  0.92035  1.0000
  S   S11       1.0  0.75000  0.38148  0.42035  1.0000
  S   S12       1.0  0.25000  0.61852  0.57965  1.0000
