data_image0
_chemical_formula_structural       I9Ga13
_chemical_formula_sum              "I9 Ga13"
_cell_length_a       11.0864
_cell_length_b       11.0864
_cell_length_c       6.41449
_cell_angle_alpha    90
_cell_angle_beta     90
_cell_angle_gamma    120

_space_group_name_H-M_alt    "P 1"
_space_group_IT_number       1

loop_
  _space_group_symop_operation_xyz
  'x, y, z'

loop_
  _atom_site_type_symbol
  _atom_site_label
  _atom_site_symmetry_multiplicity
  _atom_site_fract_x
  _atom_site_fract_y
  _atom_site_fract_z
  _atom_site_occupancy
  I   I1        1.0  0.00000  0.00000  0.50000  1.0000
  I   I2        1.0  0.33333  0.66667  0.74847  1.0000
  I   I3        1.0  0.66667  0.33333  0.25153  1.0000
  I   I4        1.0  0.19384  0.80616  0.25040  1.0000
  I   I5        1.0  0.19384  0.38768  0.25040  1.0000
  I   I6        1.0  0.61232  0.80616  0.25040  1.0000
  I   I7        1.0  0.38768  0.19384  0.74960  1.0000
  I   I8        1.0  0.80616  0.61232  0.74960  1.0000
  I   I9        1.0  0.80616  0.19384  0.74960  1.0000
  Ga  Ga1       1.0  0.00000  0.00000  0.00000  1.0000
  Ga  Ga2       1.0  0.50000  0.00000  0.00000  1.0000
  Ga  Ga3       1.0  0.00000  0.50000  0.00000  1.0000
  Ga  Ga4       1.0  0.50000  0.50000  0.00000  1.0000
  Ga  Ga5       1.0  0.50000  0.00000  0.50000  1.0000
  Ga  Ga6       1.0  0.00000  0.50000  0.50000  1.0000
  Ga  Ga7       1.0  0.50000  0.50000  0.50000  1.0000
  Ga  Ga8       1.0  0.15704  0.84296  0.75419  1.0000
  Ga  Ga9       1.0  0.15704  0.31408  0.75419  1.0000
  Ga  Ga10      1.0  0.68592  0.84296  0.75419  1.0000
  Ga  Ga11      1.0  0.31408  0.15704  0.24581  1.0000
  Ga  Ga12      1.0  0.84296  0.68592  0.24581  1.0000
  Ga  Ga13      1.0  0.84296  0.15704  0.24581  1.0000
