data_image0
_chemical_formula_structural       Ga3N8
_chemical_formula_sum              "Ga3 N8"
_cell_length_a       4.94075
_cell_length_b       4.94075
_cell_length_c       4.94075
_cell_angle_alpha    88.3468
_cell_angle_beta     88.3468
_cell_angle_gamma    88.3468

_space_group_name_H-M_alt    "P 1"
_space_group_IT_number       1

loop_
  _space_group_symop_operation_xyz
  'x, y, z'

loop_
  _atom_site_type_symbol
  _atom_site_label
  _atom_site_symmetry_multiplicity
  _atom_site_fract_x
  _atom_site_fract_y
  _atom_site_fract_z
  _atom_site_occupancy
  Ga  Ga1       1.0  0.50000  0.00000  0.50000  1.0000
  Ga  Ga2       1.0  0.00000  0.50000  0.50000  1.0000
  Ga  Ga3       1.0  0.50000  0.50000  0.00000  1.0000
  N   N1        1.0  0.50009  0.91086  0.08886  1.0000
  N   N2        1.0  0.91086  0.08886  0.50009  1.0000
  N   N3        1.0  0.08886  0.50009  0.91086  1.0000
  N   N4        1.0  0.57954  0.57954  0.57954  1.0000
  N   N5        1.0  0.42046  0.42046  0.42046  1.0000
  N   N6        1.0  0.91114  0.49991  0.08914  1.0000
  N   N7        1.0  0.08914  0.91114  0.49991  1.0000
  N   N8        1.0  0.49991  0.08914  0.91114  1.0000
