data_image0
_chemical_formula_structural       GaS5
_chemical_formula_sum              "Ga1 S5"
_cell_length_a       5.02595
_cell_length_b       5.02595
_cell_length_c       5.02594
_cell_angle_alpha    80.0483
_cell_angle_beta     80.0483
_cell_angle_gamma    80.0483

_space_group_name_H-M_alt    "P 1"
_space_group_IT_number       1

loop_
  _space_group_symop_operation_xyz
  'x, y, z'

loop_
  _atom_site_type_symbol
  _atom_site_label
  _atom_site_symmetry_multiplicity
  _atom_site_fract_x
  _atom_site_fract_y
  _atom_site_fract_z
  _atom_site_occupancy
  Ga  Ga1       1.0  0.00000  0.00000  0.00000  1.0000
  S   S1        1.0  0.69580  0.69580  0.69580  1.0000
  S   S2        1.0  0.02675  0.50000  0.97325  1.0000
  S   S3        1.0  0.50000  0.97325  0.02675  1.0000
  S   S4        1.0  0.97325  0.02675  0.50000  1.0000
  S   S5        1.0  0.30420  0.30420  0.30420  1.0000
