data_image0
_chemical_formula_structural       Se6Fe2
_chemical_formula_sum              "Se6 Fe2"
_cell_length_a       2.84091
_cell_length_b       7.58065
_cell_length_c       8.9381
_cell_angle_alpha    90
_cell_angle_beta     90
_cell_angle_gamma    90

_space_group_name_H-M_alt    "P 1"
_space_group_IT_number       1

loop_
  _space_group_symop_operation_xyz
  'x, y, z'

loop_
  _atom_site_type_symbol
  _atom_site_label
  _atom_site_symmetry_multiplicity
  _atom_site_fract_x
  _atom_site_fract_y
  _atom_site_fract_z
  _atom_site_occupancy
  Se  Se1       1.0  0.00000  0.30421  0.30950  1.0000
  Se  Se2       1.0  0.00000  0.30421  0.69050  1.0000
  Se  Se3       1.0  0.50000  0.69584  0.19044  1.0000
  Se  Se4       1.0  0.50000  0.69584  0.80956  1.0000
  Se  Se5       1.0  0.00000  0.93058  0.50000  1.0000
  Se  Se6       1.0  0.50000  0.06933  0.00000  1.0000
  Fe  Fe1       1.0  0.00000  0.81707  0.00000  1.0000
  Fe  Fe2       1.0  0.50000  0.18292  0.50000  1.0000
