data_image0
_chemical_formula_structural       Au9Ga13
_chemical_formula_sum              "Au9 Ga13"
_cell_length_a       8.37099
_cell_length_b       8.37099
_cell_length_c       7.02093
_cell_angle_alpha    90
_cell_angle_beta     90
_cell_angle_gamma    120

_space_group_name_H-M_alt    "P 1"
_space_group_IT_number       1

loop_
  _space_group_symop_operation_xyz
  'x, y, z'

loop_
  _atom_site_type_symbol
  _atom_site_label
  _atom_site_symmetry_multiplicity
  _atom_site_fract_x
  _atom_site_fract_y
  _atom_site_fract_z
  _atom_site_occupancy
  Au  Au1       1.0  0.00000  0.00000  0.50000  1.0000
  Au  Au2       1.0  0.33333  0.66667  0.63223  1.0000
  Au  Au3       1.0  0.66667  0.33333  0.36777  1.0000
  Au  Au4       1.0  0.20296  0.79704  0.21826  1.0000
  Au  Au5       1.0  0.20296  0.40591  0.21826  1.0000
  Au  Au6       1.0  0.59409  0.79704  0.21826  1.0000
  Au  Au7       1.0  0.40591  0.20296  0.78174  1.0000
  Au  Au8       1.0  0.79704  0.59409  0.78174  1.0000
  Au  Au9       1.0  0.79704  0.20296  0.78174  1.0000
  Ga  Ga1       1.0  0.00000  0.00000  0.00000  1.0000
  Ga  Ga2       1.0  0.50000  0.00000  0.00000  1.0000
  Ga  Ga3       1.0  0.00000  0.50000  0.00000  1.0000
  Ga  Ga4       1.0  0.50000  0.50000  0.00000  1.0000
  Ga  Ga5       1.0  0.50000  0.00000  0.50000  1.0000
  Ga  Ga6       1.0  0.00000  0.50000  0.50000  1.0000
  Ga  Ga7       1.0  0.50000  0.50000  0.50000  1.0000
  Ga  Ga8       1.0  0.15431  0.84569  0.72506  1.0000
  Ga  Ga9       1.0  0.15431  0.30861  0.72506  1.0000
  Ga  Ga10      1.0  0.69139  0.84569  0.72506  1.0000
  Ga  Ga11      1.0  0.30861  0.15431  0.27494  1.0000
  Ga  Ga12      1.0  0.84569  0.69139  0.27494  1.0000
  Ga  Ga13      1.0  0.84569  0.15431  0.27494  1.0000
