data_image0
_chemical_formula_structural       Ga6F20
_chemical_formula_sum              "Ga6 F20"
_cell_length_a       11.472
_cell_length_b       11.472
_cell_length_c       2.7397
_cell_angle_alpha    90
_cell_angle_beta     90
_cell_angle_gamma    120

_space_group_name_H-M_alt    "P 1"
_space_group_IT_number       1

loop_
  _space_group_symop_operation_xyz
  'x, y, z'

loop_
  _atom_site_type_symbol
  _atom_site_label
  _atom_site_symmetry_multiplicity
  _atom_site_fract_x
  _atom_site_fract_y
  _atom_site_fract_z
  _atom_site_occupancy
  Ga  Ga1       1.0  0.62571  0.76212  0.25000  1.0000
  Ga  Ga2       1.0  0.23788  0.86359  0.25000  1.0000
  Ga  Ga3       1.0  0.13641  0.37429  0.25000  1.0000
  Ga  Ga4       1.0  0.37429  0.23788  0.75000  1.0000
  Ga  Ga5       1.0  0.76212  0.13641  0.75000  1.0000
  Ga  Ga6       1.0  0.86359  0.62571  0.75000  1.0000
  F   F1        1.0  0.80701  0.04187  0.25000  1.0000
  F   F2        1.0  0.95813  0.76514  0.25000  1.0000
  F   F3        1.0  0.23486  0.19299  0.25000  1.0000
  F   F4        1.0  0.19299  0.95813  0.75000  1.0000
  F   F5        1.0  0.04187  0.23486  0.75000  1.0000
  F   F6        1.0  0.76514  0.80701  0.75000  1.0000
  F   F7        1.0  0.62649  0.09565  0.25000  1.0000
  F   F8        1.0  0.90435  0.53084  0.25000  1.0000
  F   F9        1.0  0.46916  0.37351  0.25000  1.0000
  F   F10       1.0  0.37351  0.90435  0.75000  1.0000
  F   F11       1.0  0.09565  0.46916  0.75000  1.0000
  F   F12       1.0  0.53084  0.62649  0.75000  1.0000
  F   F13       1.0  0.85896  0.27512  0.25000  1.0000
  F   F14       1.0  0.72488  0.58385  0.25000  1.0000
  F   F15       1.0  0.41615  0.14104  0.25000  1.0000
  F   F16       1.0  0.14104  0.72488  0.75000  1.0000
  F   F17       1.0  0.27512  0.41615  0.75000  1.0000
  F   F18       1.0  0.58385  0.85896  0.75000  1.0000
  F   F19       1.0  0.66667  0.33333  0.75000  1.0000
  F   F20       1.0  0.33333  0.66667  0.25000  1.0000
