data_image0
_chemical_formula_structural       Ga6Br6
_chemical_formula_sum              "Ga6 Br6"
_cell_length_a       6.14019
_cell_length_b       6.14019
_cell_length_c       17.7368
_cell_angle_alpha    90
_cell_angle_beta     90
_cell_angle_gamma    141.392

_space_group_name_H-M_alt    "P 1"
_space_group_IT_number       1

loop_
  _space_group_symop_operation_xyz
  'x, y, z'

loop_
  _atom_site_type_symbol
  _atom_site_label
  _atom_site_symmetry_multiplicity
  _atom_site_fract_x
  _atom_site_fract_y
  _atom_site_fract_z
  _atom_site_occupancy
  Ga  Ga1       1.0  0.35381  0.64619  0.09157  1.0000
  Ga  Ga2       1.0  0.64619  0.35381  0.90843  1.0000
  Ga  Ga3       1.0  0.64619  0.35381  0.59157  1.0000
  Ga  Ga4       1.0  0.35381  0.64619  0.40843  1.0000
  Ga  Ga5       1.0  0.41821  0.58179  0.75000  1.0000
  Ga  Ga6       1.0  0.58179  0.41821  0.25000  1.0000
  Br  Br1       1.0  0.69144  0.30856  0.75000  1.0000
  Br  Br2       1.0  0.30856  0.69144  0.25000  1.0000
  Br  Br3       1.0  0.97590  0.02410  0.61644  1.0000
  Br  Br4       1.0  0.02410  0.97590  0.11644  1.0000
  Br  Br5       1.0  0.97590  0.02410  0.88356  1.0000
  Br  Br6       1.0  0.02410  0.97590  0.38356  1.0000
