data_image0
_chemical_formula_structural       Ga3Hg8
_chemical_formula_sum              "Ga3 Hg8"
_cell_length_a       6.68457
_cell_length_b       6.68457
_cell_length_c       6.68457
_cell_angle_alpha    92.4611
_cell_angle_beta     92.4611
_cell_angle_gamma    92.4611

_space_group_name_H-M_alt    "P 1"
_space_group_IT_number       1

loop_
  _space_group_symop_operation_xyz
  'x, y, z'

loop_
  _atom_site_type_symbol
  _atom_site_label
  _atom_site_symmetry_multiplicity
  _atom_site_fract_x
  _atom_site_fract_y
  _atom_site_fract_z
  _atom_site_occupancy
  Ga  Ga1       1.0  0.50000  0.00000  0.50000  1.0000
  Ga  Ga2       1.0  1.00000  0.50000  0.50000  1.0000
  Ga  Ga3       1.0  0.50000  0.50000  0.00000  1.0000
  Hg  Hg1       1.0  0.69005  0.87044  0.13799  1.0000
  Hg  Hg2       1.0  0.87044  0.13799  0.69005  1.0000
  Hg  Hg3       1.0  0.13799  0.69005  0.87044  1.0000
  Hg  Hg4       1.0  0.64745  0.64745  0.64745  1.0000
  Hg  Hg5       1.0  0.35255  0.35255  0.35255  1.0000
  Hg  Hg6       1.0  0.86201  0.30995  0.12956  1.0000
  Hg  Hg7       1.0  0.12956  0.86201  0.30995  1.0000
  Hg  Hg8       1.0  0.30995  0.12956  0.86201  1.0000
