data_image0
_chemical_formula_structural       Fe2S6
_chemical_formula_sum              "Fe2 S6"
_cell_length_a       3.30128
_cell_length_b       6.82429
_cell_length_c       8.16331
_cell_angle_alpha    90
_cell_angle_beta     90
_cell_angle_gamma    90

_space_group_name_H-M_alt    "P 1"
_space_group_IT_number       1

loop_
  _space_group_symop_operation_xyz
  'x, y, z'

loop_
  _atom_site_type_symbol
  _atom_site_label
  _atom_site_symmetry_multiplicity
  _atom_site_fract_x
  _atom_site_fract_y
  _atom_site_fract_z
  _atom_site_occupancy
  Fe  Fe1       1.0  0.50000  0.22829  0.50000  1.0000
  Fe  Fe2       1.0  0.00000  0.77171  0.00000  1.0000
  S   S1        1.0  0.00000  0.43426  0.50000  1.0000
  S   S2        1.0  0.50000  0.56574  0.00000  1.0000
  S   S3        1.0  0.00000  0.22281  0.69474  1.0000
  S   S4        1.0  0.50000  0.77719  0.80526  1.0000
  S   S5        1.0  0.00000  0.22281  0.30526  1.0000
  S   S6        1.0  0.50000  0.77719  0.19474  1.0000
