data_image0
_chemical_formula_structural       Hg9Ga13
_chemical_formula_sum              "Hg9 Ga13"
_cell_length_a       9.2944
_cell_length_b       9.2944
_cell_length_c       6.61601
_cell_angle_alpha    90
_cell_angle_beta     90
_cell_angle_gamma    120

_space_group_name_H-M_alt    "P 1"
_space_group_IT_number       1

loop_
  _space_group_symop_operation_xyz
  'x, y, z'

loop_
  _atom_site_type_symbol
  _atom_site_label
  _atom_site_symmetry_multiplicity
  _atom_site_fract_x
  _atom_site_fract_y
  _atom_site_fract_z
  _atom_site_occupancy
  Hg  Hg1       1.0  0.00000  0.00000  0.50000  1.0000
  Hg  Hg2       1.0  0.33333  0.66667  0.75397  1.0000
  Hg  Hg3       1.0  0.66667  0.33333  0.24603  1.0000
  Hg  Hg4       1.0  0.20201  0.79799  0.26268  1.0000
  Hg  Hg5       1.0  0.20201  0.40402  0.26268  1.0000
  Hg  Hg6       1.0  0.59598  0.79799  0.26268  1.0000
  Hg  Hg7       1.0  0.40402  0.20201  0.73732  1.0000
  Hg  Hg8       1.0  0.79799  0.59598  0.73732  1.0000
  Hg  Hg9       1.0  0.79799  0.20201  0.73732  1.0000
  Ga  Ga1       1.0  0.00000  0.00000  0.00000  1.0000
  Ga  Ga2       1.0  0.50000  0.00000  0.00000  1.0000
  Ga  Ga3       1.0  0.00000  0.50000  0.00000  1.0000
  Ga  Ga4       1.0  0.50000  0.50000  0.00000  1.0000
  Ga  Ga5       1.0  0.50000  0.00000  0.50000  1.0000
  Ga  Ga6       1.0  0.00000  0.50000  0.50000  1.0000
  Ga  Ga7       1.0  0.50000  0.50000  0.50000  1.0000
  Ga  Ga8       1.0  0.15398  0.84602  0.77836  1.0000
  Ga  Ga9       1.0  0.15398  0.30796  0.77836  1.0000
  Ga  Ga10      1.0  0.69204  0.84602  0.77836  1.0000
  Ga  Ga11      1.0  0.30796  0.15398  0.22164  1.0000
  Ga  Ga12      1.0  0.84602  0.69204  0.22164  1.0000
  Ga  Ga13      1.0  0.84602  0.15398  0.22164  1.0000
