data_image0
_chemical_formula_structural       Br8Ga12
_chemical_formula_sum              "Br8 Ga12"
_cell_length_a       6.36094
_cell_length_b       6.36094
_cell_length_c       15.3163
_cell_angle_alpha    90
_cell_angle_beta     90
_cell_angle_gamma    120

_space_group_name_H-M_alt    "P 1"
_space_group_IT_number       1

loop_
  _space_group_symop_operation_xyz
  'x, y, z'

loop_
  _atom_site_type_symbol
  _atom_site_label
  _atom_site_symmetry_multiplicity
  _atom_site_fract_x
  _atom_site_fract_y
  _atom_site_fract_z
  _atom_site_occupancy
  Br  Br1       1.0  0.00000  0.00000  0.25000  1.0000
  Br  Br2       1.0  0.00000  0.00000  0.75000  1.0000
  Br  Br3       1.0  0.33333  0.66667  0.25000  1.0000
  Br  Br4       1.0  0.66667  0.33333  0.75000  1.0000
  Br  Br5       1.0  0.33333  0.66667  0.60819  1.0000
  Br  Br6       1.0  0.66667  0.33333  0.10819  1.0000
  Br  Br7       1.0  0.66667  0.33333  0.39181  1.0000
  Br  Br8       1.0  0.33333  0.66667  0.89181  1.0000
  Ga  Ga1       1.0  0.16980  0.33960  0.41093  1.0000
  Ga  Ga2       1.0  0.16980  0.83020  0.41093  1.0000
  Ga  Ga3       1.0  0.66040  0.83020  0.41093  1.0000
  Ga  Ga4       1.0  0.83020  0.16980  0.91093  1.0000
  Ga  Ga5       1.0  0.33960  0.16980  0.91093  1.0000
  Ga  Ga6       1.0  0.83020  0.66040  0.91093  1.0000
  Ga  Ga7       1.0  0.83020  0.66040  0.58907  1.0000
  Ga  Ga8       1.0  0.83020  0.16980  0.58907  1.0000
  Ga  Ga9       1.0  0.33960  0.16980  0.58907  1.0000
  Ga  Ga10      1.0  0.16980  0.83020  0.08907  1.0000
  Ga  Ga11      1.0  0.66040  0.83020  0.08907  1.0000
  Ga  Ga12      1.0  0.16980  0.33960  0.08907  1.0000
