data_image0
_chemical_formula_structural       Fe2Se4
_chemical_formula_sum              "Fe2 Se4"
_cell_length_a       3.60295
_cell_length_b       4.8105
_cell_length_c       5.78369
_cell_angle_alpha    90
_cell_angle_beta     90
_cell_angle_gamma    90

_space_group_name_H-M_alt    "P 1"
_space_group_IT_number       1

loop_
  _space_group_symop_operation_xyz
  'x, y, z'

loop_
  _atom_site_type_symbol
  _atom_site_label
  _atom_site_symmetry_multiplicity
  _atom_site_fract_x
  _atom_site_fract_y
  _atom_site_fract_z
  _atom_site_occupancy
  Fe  Fe1       1.0  0.50000  0.50000  0.50000  1.0000
  Fe  Fe2       1.0  0.00000  0.00000  0.00000  1.0000
  Se  Se1       1.0  0.50000  0.28230  0.86721  1.0000
  Se  Se2       1.0  0.50000  0.71770  0.13279  1.0000
  Se  Se3       1.0  0.00000  0.21770  0.36721  1.0000
  Se  Se4       1.0  0.00000  0.78230  0.63279  1.0000
