data_image0
_chemical_formula_structural       Fe6Se16
_chemical_formula_sum              "Fe6 Se16"
_cell_length_a       5.87667
_cell_length_b       5.86078
_cell_length_c       13.0938
_cell_angle_alpha    63.915
_cell_angle_beta     90
_cell_angle_gamma    90

_space_group_name_H-M_alt    "P 1"
_space_group_IT_number       1

loop_
  _space_group_symop_operation_xyz
  'x, y, z'

loop_
  _atom_site_type_symbol
  _atom_site_label
  _atom_site_symmetry_multiplicity
  _atom_site_fract_x
  _atom_site_fract_y
  _atom_site_fract_z
  _atom_site_occupancy
  Fe  Fe1       1.0  0.48604  0.75766  0.74891  1.0000
  Fe  Fe2       1.0  0.51396  0.24234  0.25109  1.0000
  Fe  Fe3       1.0  0.50000  0.00000  0.00000  1.0000
  Fe  Fe4       1.0  0.98604  0.24234  0.75109  1.0000
  Fe  Fe5       1.0  0.01396  0.75766  0.24891  1.0000
  Fe  Fe6       1.0  0.00000  0.00000  0.50000  1.0000
  Se  Se1       1.0  0.62959  0.68901  0.18828  1.0000
  Se  Se2       1.0  0.61624  0.17826  0.69237  1.0000
  Se  Se3       1.0  0.60073  0.68900  0.93442  1.0000
  Se  Se4       1.0  0.63085  0.16747  0.43676  1.0000
  Se  Se5       1.0  0.86915  0.16747  0.93676  1.0000
  Se  Se6       1.0  0.88376  0.17826  0.19237  1.0000
  Se  Se7       1.0  0.89927  0.68900  0.43442  1.0000
  Se  Se8       1.0  0.87041  0.68901  0.68828  1.0000
  Se  Se9       1.0  0.11624  0.82174  0.80763  1.0000
  Se  Se10      1.0  0.13085  0.83253  0.06324  1.0000
  Se  Se11      1.0  0.10073  0.31100  0.56558  1.0000
  Se  Se12      1.0  0.12959  0.31099  0.31172  1.0000
  Se  Se13      1.0  0.39927  0.31100  0.06558  1.0000
  Se  Se14      1.0  0.37041  0.31099  0.81172  1.0000
  Se  Se15      1.0  0.38376  0.82174  0.30763  1.0000
  Se  Se16      1.0  0.36915  0.83253  0.56324  1.0000
