data_image0
_chemical_formula_structural       Fe6Se4
_chemical_formula_sum              "Fe6 Se4"
_cell_length_a       5.8035
_cell_length_b       5.8035
_cell_length_c       4.83753
_cell_angle_alpha    90
_cell_angle_beta     90
_cell_angle_gamma    90

_space_group_name_H-M_alt    "P 1"
_space_group_IT_number       1

loop_
  _space_group_symop_operation_xyz
  'x, y, z'

loop_
  _atom_site_type_symbol
  _atom_site_label
  _atom_site_symmetry_multiplicity
  _atom_site_fract_x
  _atom_site_fract_y
  _atom_site_fract_z
  _atom_site_occupancy
  Fe  Fe1       1.0  0.00000  0.00000  0.00000  1.0000
  Fe  Fe2       1.0  0.50000  0.50000  0.00000  1.0000
  Fe  Fe3       1.0  0.14996  0.64996  0.76323  1.0000
  Fe  Fe4       1.0  0.35004  0.14996  0.23677  1.0000
  Fe  Fe5       1.0  0.64996  0.85004  0.23677  1.0000
  Fe  Fe6       1.0  0.85004  0.35004  0.76323  1.0000
  Se  Se1       1.0  0.23701  0.73701  0.26542  1.0000
  Se  Se2       1.0  0.26299  0.23701  0.73458  1.0000
  Se  Se3       1.0  0.73701  0.76299  0.73458  1.0000
  Se  Se4       1.0  0.76299  0.26299  0.26542  1.0000
