data_image0
_chemical_formula_structural       Ga4Hg12
_chemical_formula_sum              "Ga4 Hg12"
_cell_length_a       10.0339
_cell_length_b       10.0339
_cell_length_c       6.41048
_cell_angle_alpha    90
_cell_angle_beta     90
_cell_angle_gamma    141.283

_space_group_name_H-M_alt    "P 1"
_space_group_IT_number       1

loop_
  _space_group_symop_operation_xyz
  'x, y, z'

loop_
  _atom_site_type_symbol
  _atom_site_label
  _atom_site_symmetry_multiplicity
  _atom_site_fract_x
  _atom_site_fract_y
  _atom_site_fract_z
  _atom_site_occupancy
  Ga  Ga1       1.0  0.62699  0.37301  0.00000  1.0000
  Ga  Ga2       1.0  0.37301  0.62699  0.00000  1.0000
  Ga  Ga3       1.0  0.12699  0.87301  0.50000  1.0000
  Ga  Ga4       1.0  0.87301  0.12699  0.50000  1.0000
  Hg  Hg1       1.0  0.71067  0.71067  0.19534  1.0000
  Hg  Hg2       1.0  0.21067  0.21067  0.30466  1.0000
  Hg  Hg3       1.0  0.78933  0.78933  0.69534  1.0000
  Hg  Hg4       1.0  0.37708  0.62292  0.50000  1.0000
  Hg  Hg5       1.0  0.99215  0.49215  0.75000  1.0000
  Hg  Hg6       1.0  0.87708  0.12292  0.00000  1.0000
  Hg  Hg7       1.0  0.00785  0.50785  0.25000  1.0000
  Hg  Hg8       1.0  0.28933  0.28933  0.80466  1.0000
  Hg  Hg9       1.0  0.62292  0.37708  0.50000  1.0000
  Hg  Hg10      1.0  0.12292  0.87708  0.00000  1.0000
  Hg  Hg11      1.0  0.50785  0.00785  0.25000  1.0000
  Hg  Hg12      1.0  0.49215  0.99215  0.75000  1.0000
