data_image0
_chemical_formula_structural       Fe8S16
_chemical_formula_sum              "Fe8 S16"
_cell_length_a       6.14502
_cell_length_b       10.2084
_cell_length_c       7.8666
_cell_angle_alpha    90
_cell_angle_beta     90
_cell_angle_gamma    90

_space_group_name_H-M_alt    "P 1"
_space_group_IT_number       1

loop_
  _space_group_symop_operation_xyz
  'x, y, z'

loop_
  _atom_site_type_symbol
  _atom_site_label
  _atom_site_symmetry_multiplicity
  _atom_site_fract_x
  _atom_site_fract_y
  _atom_site_fract_z
  _atom_site_occupancy
  Fe  Fe1       1.0  0.48517  0.92677  0.13487  1.0000
  Fe  Fe2       1.0  0.01483  0.57323  0.63487  1.0000
  Fe  Fe3       1.0  0.01483  0.42677  0.86513  1.0000
  Fe  Fe4       1.0  0.48517  0.07323  0.36513  1.0000
  Fe  Fe5       1.0  0.51483  0.07323  0.86513  1.0000
  Fe  Fe6       1.0  0.98517  0.42677  0.36513  1.0000
  Fe  Fe7       1.0  0.98517  0.57323  0.13487  1.0000
  Fe  Fe8       1.0  0.51483  0.92677  0.63487  1.0000
  S   S1        1.0  0.28577  0.50000  0.25000  1.0000
  S   S2        1.0  0.21423  0.00000  0.75000  1.0000
  S   S3        1.0  0.71423  0.50000  0.75000  1.0000
  S   S4        1.0  0.78577  0.00000  0.25000  1.0000
  S   S5        1.0  0.32758  0.87647  0.39967  1.0000
  S   S6        1.0  0.17242  0.62353  0.89967  1.0000
  S   S7        1.0  0.17242  0.37647  0.60033  1.0000
  S   S8        1.0  0.32758  0.12353  0.10033  1.0000
  S   S9        1.0  0.67242  0.12353  0.60033  1.0000
  S   S10       1.0  0.82758  0.37647  0.10033  1.0000
  S   S11       1.0  0.82758  0.62353  0.39967  1.0000
  S   S12       1.0  0.67242  0.87647  0.89967  1.0000
  S   S13       1.0  0.50000  0.50000  0.00000  1.0000
  S   S14       1.0  0.00000  0.00000  0.50000  1.0000
  S   S15       1.0  0.00000  0.00000  0.00000  1.0000
  S   S16       1.0  0.50000  0.50000  0.50000  1.0000
