data_image0
_chemical_formula_structural       GaI4
_chemical_formula_sum              "Ga1 I4"
_cell_length_a       6.8737
_cell_length_b       6.8737
_cell_length_c       6.8737
_cell_angle_alpha    94.5672
_cell_angle_beta     94.5672
_cell_angle_gamma    147.219

_space_group_name_H-M_alt    "P 1"
_space_group_IT_number       1

loop_
  _space_group_symop_operation_xyz
  'x, y, z'

loop_
  _atom_site_type_symbol
  _atom_site_label
  _atom_site_symmetry_multiplicity
  _atom_site_fract_x
  _atom_site_fract_y
  _atom_site_fract_z
  _atom_site_occupancy
  Ga  Ga1       1.0  0.00000  0.00000  0.00000  1.0000
  I   I1        1.0  0.57408  0.76539  0.33947  1.0000
  I   I2        1.0  0.42592  0.23461  0.66053  1.0000
  I   I3        1.0  0.23461  0.57408  0.80869  1.0000
  I   I4        1.0  0.76539  0.42592  0.19131  1.0000
