data_image0
_chemical_formula_structural       Fe3S8
_chemical_formula_sum              "Fe3 S8"
_cell_length_a       5.49044
_cell_length_b       5.49044
_cell_length_c       5.49044
_cell_angle_alpha    90.3965
_cell_angle_beta     90.3965
_cell_angle_gamma    90.3965

_space_group_name_H-M_alt    "P 1"
_space_group_IT_number       1

loop_
  _space_group_symop_operation_xyz
  'x, y, z'

loop_
  _atom_site_type_symbol
  _atom_site_label
  _atom_site_symmetry_multiplicity
  _atom_site_fract_x
  _atom_site_fract_y
  _atom_site_fract_z
  _atom_site_occupancy
  Fe  Fe1       1.0  0.50000  0.00000  0.50000  1.0000
  Fe  Fe2       1.0  1.00000  0.50000  0.50000  1.0000
  Fe  Fe3       1.0  0.50000  0.50000  0.00000  1.0000
  S   S1        1.0  0.59367  0.88498  0.11868  1.0000
  S   S2        1.0  0.88498  0.11868  0.59367  1.0000
  S   S3        1.0  0.11868  0.59367  0.88498  1.0000
  S   S4        1.0  0.61668  0.61668  0.61668  1.0000
  S   S5        1.0  0.38332  0.38332  0.38332  1.0000
  S   S6        1.0  0.88132  0.40633  0.11502  1.0000
  S   S7        1.0  0.11502  0.88132  0.40633  1.0000
  S   S8        1.0  0.40633  0.11502  0.88132  1.0000
