data_image0
_chemical_formula_structural       I10Hf6
_chemical_formula_sum              "I10 Hf6"
_cell_length_a       8.96886
_cell_length_b       8.96886
_cell_length_c       8.96886
_cell_angle_alpha    126.392
_cell_angle_beta     126.392
_cell_angle_gamma    79.2449

_space_group_name_H-M_alt    "P 1"
_space_group_IT_number       1

loop_
  _space_group_symop_operation_xyz
  'x, y, z'

loop_
  _atom_site_type_symbol
  _atom_site_label
  _atom_site_symmetry_multiplicity
  _atom_site_fract_x
  _atom_site_fract_y
  _atom_site_fract_z
  _atom_site_occupancy
  I   I1        1.0  0.51875  0.69576  0.50000  1.0000
  I   I2        1.0  0.48125  0.30424  0.50000  1.0000
  I   I3        1.0  0.50000  0.50000  0.00000  1.0000
  I   I4        1.0  0.00000  0.00000  0.00000  1.0000
  I   I5        1.0  0.19576  0.01875  0.50000  1.0000
  I   I6        1.0  0.01875  0.51875  0.82299  1.0000
  I   I7        1.0  0.69576  0.19576  0.17701  1.0000
  I   I8        1.0  0.30424  0.80424  0.82299  1.0000
  I   I9        1.0  0.98125  0.48125  0.17701  1.0000
  I   I10       1.0  0.80424  0.98125  0.50000  1.0000
  Hf  Hf1       1.0  0.86860  0.63140  0.50000  1.0000
  Hf  Hf2       1.0  0.63140  0.13140  0.76281  1.0000
  Hf  Hf3       1.0  0.36860  0.86860  0.23719  1.0000
  Hf  Hf4       1.0  0.13140  0.36860  0.50000  1.0000
  Hf  Hf5       1.0  0.25000  0.25000  0.00000  1.0000
  Hf  Hf6       1.0  0.75000  0.75000  0.00000  1.0000
