data_image0
_chemical_formula_structural       Br9Hf13
_chemical_formula_sum              "Br9 Hf13"
_cell_length_a       10.4022
_cell_length_b       10.4022
_cell_length_c       5.78998
_cell_angle_alpha    90
_cell_angle_beta     90
_cell_angle_gamma    120

_space_group_name_H-M_alt    "P 1"
_space_group_IT_number       1

loop_
  _space_group_symop_operation_xyz
  'x, y, z'

loop_
  _atom_site_type_symbol
  _atom_site_label
  _atom_site_symmetry_multiplicity
  _atom_site_fract_x
  _atom_site_fract_y
  _atom_site_fract_z
  _atom_site_occupancy
  Br  Br1       1.0  0.00000  0.00000  0.50000  1.0000
  Br  Br2       1.0  0.33333  0.66667  0.99750  1.0000
  Br  Br3       1.0  0.66667  0.33333  0.00250  1.0000
  Br  Br4       1.0  0.20501  0.79499  0.48377  1.0000
  Br  Br5       1.0  0.20501  0.41002  0.48377  1.0000
  Br  Br6       1.0  0.58998  0.79499  0.48377  1.0000
  Br  Br7       1.0  0.41002  0.20501  0.51623  1.0000
  Br  Br8       1.0  0.79499  0.58998  0.51623  1.0000
  Br  Br9       1.0  0.79499  0.20501  0.51623  1.0000
  Hf  Hf1       1.0  0.00000  0.00000  0.00000  1.0000
  Hf  Hf2       1.0  0.50000  0.00000  0.00000  1.0000
  Hf  Hf3       1.0  0.00000  0.50000  0.00000  1.0000
  Hf  Hf4       1.0  0.50000  0.50000  0.00000  1.0000
  Hf  Hf5       1.0  0.50000  0.00000  0.50000  1.0000
  Hf  Hf6       1.0  0.00000  0.50000  0.50000  1.0000
  Hf  Hf7       1.0  0.50000  0.50000  0.50000  1.0000
  Hf  Hf8       1.0  0.16476  0.83524  0.94666  1.0000
  Hf  Hf9       1.0  0.16476  0.32952  0.94666  1.0000
  Hf  Hf10      1.0  0.67048  0.83524  0.94666  1.0000
  Hf  Hf11      1.0  0.32952  0.16476  0.05334  1.0000
  Hf  Hf12      1.0  0.83524  0.67048  0.05334  1.0000
  Hf  Hf13      1.0  0.83524  0.16476  0.05334  1.0000
