data_image0
_chemical_formula_structural       Se10Ga6
_chemical_formula_sum              "Se10 Ga6"
_cell_length_a       7.95366
_cell_length_b       7.95366
_cell_length_c       7.95366
_cell_angle_alpha    118.157
_cell_angle_beta     118.157
_cell_angle_gamma    93.2232

_space_group_name_H-M_alt    "P 1"
_space_group_IT_number       1

loop_
  _space_group_symop_operation_xyz
  'x, y, z'

loop_
  _atom_site_type_symbol
  _atom_site_label
  _atom_site_symmetry_multiplicity
  _atom_site_fract_x
  _atom_site_fract_y
  _atom_site_fract_z
  _atom_site_occupancy
  Se  Se1       1.0  0.51568  0.65264  0.50000  1.0000
  Se  Se2       1.0  0.48432  0.34736  0.50000  1.0000
  Se  Se3       1.0  0.50000  0.50000  0.00000  1.0000
  Se  Se4       1.0  0.00000  0.00000  0.00000  1.0000
  Se  Se5       1.0  0.15264  0.01568  0.50000  1.0000
  Se  Se6       1.0  0.01568  0.51568  0.86305  1.0000
  Se  Se7       1.0  0.65264  0.15264  0.13695  1.0000
  Se  Se8       1.0  0.34736  0.84736  0.86305  1.0000
  Se  Se9       1.0  0.98432  0.48432  0.13695  1.0000
  Se  Se10      1.0  0.84736  0.98432  0.50000  1.0000
  Ga  Ga1       1.0  0.84387  0.65613  0.50000  1.0000
  Ga  Ga2       1.0  0.65613  0.15613  0.81226  1.0000
  Ga  Ga3       1.0  0.34387  0.84387  0.18774  1.0000
  Ga  Ga4       1.0  0.15613  0.34387  0.50000  1.0000
  Ga  Ga5       1.0  0.25000  0.25000  0.00000  1.0000
  Ga  Ga6       1.0  0.75000  0.75000  0.00000  1.0000
