data_image0
_chemical_formula_structural       Se8Hf12
_chemical_formula_sum              "Se8 Hf12"
_cell_length_a       6.07044
_cell_length_b       6.07044
_cell_length_c       13.5726
_cell_angle_alpha    90
_cell_angle_beta     90
_cell_angle_gamma    120

_space_group_name_H-M_alt    "P 1"
_space_group_IT_number       1

loop_
  _space_group_symop_operation_xyz
  'x, y, z'

loop_
  _atom_site_type_symbol
  _atom_site_label
  _atom_site_symmetry_multiplicity
  _atom_site_fract_x
  _atom_site_fract_y
  _atom_site_fract_z
  _atom_site_occupancy
  Se  Se1       1.0  0.00000  0.00000  0.25000  1.0000
  Se  Se2       1.0  0.00000  0.00000  0.75000  1.0000
  Se  Se3       1.0  0.33333  0.66667  0.25000  1.0000
  Se  Se4       1.0  0.66667  0.33333  0.75000  1.0000
  Se  Se5       1.0  0.33333  0.66667  0.58772  1.0000
  Se  Se6       1.0  0.66667  0.33333  0.08772  1.0000
  Se  Se7       1.0  0.66667  0.33333  0.41228  1.0000
  Se  Se8       1.0  0.33333  0.66667  0.91228  1.0000
  Hf  Hf1       1.0  0.16872  0.33743  0.40913  1.0000
  Hf  Hf2       1.0  0.16872  0.83128  0.40913  1.0000
  Hf  Hf3       1.0  0.66257  0.83128  0.40913  1.0000
  Hf  Hf4       1.0  0.83128  0.16872  0.90913  1.0000
  Hf  Hf5       1.0  0.33743  0.16872  0.90913  1.0000
  Hf  Hf6       1.0  0.83128  0.66257  0.90913  1.0000
  Hf  Hf7       1.0  0.83128  0.66257  0.59087  1.0000
  Hf  Hf8       1.0  0.83128  0.16872  0.59087  1.0000
  Hf  Hf9       1.0  0.33743  0.16872  0.59087  1.0000
  Hf  Hf10      1.0  0.16872  0.83128  0.09087  1.0000
  Hf  Hf11      1.0  0.66257  0.83128  0.09087  1.0000
  Hf  Hf12      1.0  0.16872  0.33743  0.09087  1.0000
