data_image0
_chemical_formula_structural       In2Ag6
_chemical_formula_sum              "In2 Ag6"
_cell_length_a       4.84838
_cell_length_b       5.22518
_cell_length_c       6.01801
_cell_angle_alpha    90
_cell_angle_beta     90
_cell_angle_gamma    90

_space_group_name_H-M_alt    "P 1"
_space_group_IT_number       1

loop_
  _space_group_symop_operation_xyz
  'x, y, z'

loop_
  _atom_site_type_symbol
  _atom_site_label
  _atom_site_symmetry_multiplicity
  _atom_site_fract_x
  _atom_site_fract_y
  _atom_site_fract_z
  _atom_site_occupancy
  In  In1       1.0  0.50000  0.33380  0.50000  1.0000
  In  In2       1.0  0.00000  0.66620  0.00000  1.0000
  Ag  Ag1       1.0  0.00000  0.66817  0.50000  1.0000
  Ag  Ag2       1.0  0.50000  0.33183  0.00000  1.0000
  Ag  Ag3       1.0  0.00000  0.16307  0.74983  1.0000
  Ag  Ag4       1.0  0.50000  0.83693  0.75017  1.0000
  Ag  Ag5       1.0  0.00000  0.16307  0.25017  1.0000
  Ag  Ag6       1.0  0.50000  0.83693  0.24983  1.0000
