data_image0
_chemical_formula_structural       Hf8Br8
_chemical_formula_sum              "Hf8 Br8"
_cell_length_a       6.6601
_cell_length_b       6.6601
_cell_length_c       8.85055
_cell_angle_alpha    90
_cell_angle_beta     90
_cell_angle_gamma    90

_space_group_name_H-M_alt    "P 1"
_space_group_IT_number       1

loop_
  _space_group_symop_operation_xyz
  'x, y, z'

loop_
  _atom_site_type_symbol
  _atom_site_label
  _atom_site_symmetry_multiplicity
  _atom_site_fract_x
  _atom_site_fract_y
  _atom_site_fract_z
  _atom_site_occupancy
  Hf  Hf1       1.0  0.57335  0.69935  0.00000  1.0000
  Hf  Hf2       1.0  0.30065  0.57335  0.50000  1.0000
  Hf  Hf3       1.0  0.69935  0.42665  0.50000  1.0000
  Hf  Hf4       1.0  0.42665  0.30065  0.00000  1.0000
  Hf  Hf5       1.0  0.50000  0.00000  0.50000  1.0000
  Hf  Hf6       1.0  0.00000  0.50000  0.00000  1.0000
  Hf  Hf7       1.0  0.00000  0.00000  0.75000  1.0000
  Hf  Hf8       1.0  0.00000  0.00000  0.25000  1.0000
  Br  Br1       1.0  0.19069  0.34928  0.74889  1.0000
  Br  Br2       1.0  0.65072  0.19069  0.24889  1.0000
  Br  Br3       1.0  0.34928  0.80931  0.24889  1.0000
  Br  Br4       1.0  0.80931  0.65072  0.74889  1.0000
  Br  Br5       1.0  0.80931  0.65072  0.25111  1.0000
  Br  Br6       1.0  0.34928  0.80931  0.75111  1.0000
  Br  Br7       1.0  0.65072  0.19069  0.75111  1.0000
  Br  Br8       1.0  0.19069  0.34928  0.25111  1.0000
