data_image0
_chemical_formula_structural       HfHg5
_chemical_formula_sum              "Hf1 Hg5"
_cell_length_a       6.24216
_cell_length_b       6.24216
_cell_length_c       6.24216
_cell_angle_alpha    51.8049
_cell_angle_beta     51.8049
_cell_angle_gamma    51.8049

_space_group_name_H-M_alt    "P 1"
_space_group_IT_number       1

loop_
  _space_group_symop_operation_xyz
  'x, y, z'

loop_
  _atom_site_type_symbol
  _atom_site_label
  _atom_site_symmetry_multiplicity
  _atom_site_fract_x
  _atom_site_fract_y
  _atom_site_fract_z
  _atom_site_occupancy
  Hf  Hf1       1.0  0.00000  0.00000  0.00000  1.0000
  Hg  Hg1       1.0  0.65239  0.65239  0.65239  1.0000
  Hg  Hg2       1.0  0.13908  0.50000  0.86092  1.0000
  Hg  Hg3       1.0  0.50000  0.86092  0.13908  1.0000
  Hg  Hg4       1.0  0.86092  0.13908  0.50000  1.0000
  Hg  Hg5       1.0  0.34761  0.34761  0.34761  1.0000
