data_image0
_chemical_formula_structural       Hf8Se12
_chemical_formula_sum              "Hf8 Se12"
_cell_length_a       3.61386
_cell_length_b       10.8715
_cell_length_c       10.4787
_cell_angle_alpha    90
_cell_angle_beta     90
_cell_angle_gamma    90

_space_group_name_H-M_alt    "P 1"
_space_group_IT_number       1

loop_
  _space_group_symop_operation_xyz
  'x, y, z'

loop_
  _atom_site_type_symbol
  _atom_site_label
  _atom_site_symmetry_multiplicity
  _atom_site_fract_x
  _atom_site_fract_y
  _atom_site_fract_z
  _atom_site_occupancy
  Hf  Hf1       1.0  0.25000  0.98271  0.79617  1.0000
  Hf  Hf2       1.0  0.75000  0.01729  0.20383  1.0000
  Hf  Hf3       1.0  0.75000  0.48271  0.70383  1.0000
  Hf  Hf4       1.0  0.25000  0.51729  0.29617  1.0000
  Hf  Hf5       1.0  0.25000  0.18623  0.45713  1.0000
  Hf  Hf6       1.0  0.75000  0.81377  0.54287  1.0000
  Hf  Hf7       1.0  0.75000  0.68623  0.04287  1.0000
  Hf  Hf8       1.0  0.25000  0.31377  0.95713  1.0000
  Se  Se1       1.0  0.25000  0.30196  0.70066  1.0000
  Se  Se2       1.0  0.75000  0.69804  0.29934  1.0000
  Se  Se3       1.0  0.75000  0.80196  0.79934  1.0000
  Se  Se4       1.0  0.25000  0.19804  0.20066  1.0000
  Se  Se5       1.0  0.25000  0.94925  0.38621  1.0000
  Se  Se6       1.0  0.75000  0.05075  0.61379  1.0000
  Se  Se7       1.0  0.75000  0.44925  0.11379  1.0000
  Se  Se8       1.0  0.25000  0.55075  0.88621  1.0000
  Se  Se9       1.0  0.25000  0.88043  0.05297  1.0000
  Se  Se10      1.0  0.75000  0.11957  0.94703  1.0000
  Se  Se11      1.0  0.75000  0.38043  0.44703  1.0000
  Se  Se12      1.0  0.25000  0.61957  0.55297  1.0000
