data_image0
_chemical_formula_structural       Ag4In
_chemical_formula_sum              "Ag4 In1"
_cell_length_a       12.028
_cell_length_b       12.028
_cell_length_c       12.028
_cell_angle_alpha    14.6624
_cell_angle_beta     14.6624
_cell_angle_gamma    14.6624

_space_group_name_H-M_alt    "P 1"
_space_group_IT_number       1

loop_
  _space_group_symop_operation_xyz
  'x, y, z'

loop_
  _atom_site_type_symbol
  _atom_site_label
  _atom_site_symmetry_multiplicity
  _atom_site_fract_x
  _atom_site_fract_y
  _atom_site_fract_z
  _atom_site_occupancy
  Ag  Ag1       1.0  0.59702  0.59702  0.59702  1.0000
  Ag  Ag2       1.0  0.19890  0.19890  0.19890  1.0000
  Ag  Ag3       1.0  0.80110  0.80110  0.80110  1.0000
  Ag  Ag4       1.0  0.40298  0.40298  0.40298  1.0000
  In  In1       1.0  0.00000  0.00000  0.00000  1.0000
