data_image0
_chemical_formula_structural       S9Ga13
_chemical_formula_sum              "S9 Ga13"
_cell_length_a       7.51355
_cell_length_b       7.51355
_cell_length_c       8.90505
_cell_angle_alpha    90
_cell_angle_beta     90
_cell_angle_gamma    120

_space_group_name_H-M_alt    "P 1"
_space_group_IT_number       1

loop_
  _space_group_symop_operation_xyz
  'x, y, z'

loop_
  _atom_site_type_symbol
  _atom_site_label
  _atom_site_symmetry_multiplicity
  _atom_site_fract_x
  _atom_site_fract_y
  _atom_site_fract_z
  _atom_site_occupancy
  S   S1        1.0  0.00000  0.00000  0.50000  1.0000
  S   S2        1.0  0.33333  0.66667  0.84446  1.0000
  S   S3        1.0  0.66667  0.33333  0.15554  1.0000
  S   S4        1.0  0.15810  0.84190  0.16637  1.0000
  S   S5        1.0  0.15810  0.31620  0.16637  1.0000
  S   S6        1.0  0.68380  0.84190  0.16637  1.0000
  S   S7        1.0  0.31620  0.15810  0.83363  1.0000
  S   S8        1.0  0.84190  0.68380  0.83363  1.0000
  S   S9        1.0  0.84190  0.15810  0.83363  1.0000
  Ga  Ga1       1.0  0.00000  0.00000  0.00000  1.0000
  Ga  Ga2       1.0  0.50000  0.00000  0.00000  1.0000
  Ga  Ga3       1.0  0.00000  0.50000  0.00000  1.0000
  Ga  Ga4       1.0  0.50000  0.50000  0.00000  1.0000
  Ga  Ga5       1.0  0.50000  0.00000  0.50000  1.0000
  Ga  Ga6       1.0  0.00000  0.50000  0.50000  1.0000
  Ga  Ga7       1.0  0.50000  0.50000  0.50000  1.0000
  Ga  Ga8       1.0  0.16225  0.83775  0.66823  1.0000
  Ga  Ga9       1.0  0.16225  0.32450  0.66823  1.0000
  Ga  Ga10      1.0  0.67550  0.83775  0.66823  1.0000
  Ga  Ga11      1.0  0.32450  0.16225  0.33177  1.0000
  Ga  Ga12      1.0  0.83775  0.67550  0.33177  1.0000
  Ga  Ga13      1.0  0.83775  0.16225  0.33177  1.0000
