data_image0
_chemical_formula_structural       Hf14N8
_chemical_formula_sum              "Hf14 N8"
_cell_length_a       4.49763
_cell_length_b       7.40606
_cell_length_c       10.5002
_cell_angle_alpha    90
_cell_angle_beta     90
_cell_angle_gamma    90

_space_group_name_H-M_alt    "P 1"
_space_group_IT_number       1

loop_
  _space_group_symop_operation_xyz
  'x, y, z'

loop_
  _atom_site_type_symbol
  _atom_site_label
  _atom_site_symmetry_multiplicity
  _atom_site_fract_x
  _atom_site_fract_y
  _atom_site_fract_z
  _atom_site_occupancy
  Hf  Hf1       1.0  0.24969  0.24078  0.60361  1.0000
  Hf  Hf2       1.0  0.24969  0.75922  0.39639  1.0000
  Hf  Hf3       1.0  0.75031  0.25922  0.10361  1.0000
  Hf  Hf4       1.0  0.75031  0.74078  0.89639  1.0000
  Hf  Hf5       1.0  0.75021  0.16978  0.81037  1.0000
  Hf  Hf6       1.0  0.75021  0.83022  0.18963  1.0000
  Hf  Hf7       1.0  0.24979  0.33022  0.31037  1.0000
  Hf  Hf8       1.0  0.24979  0.66978  0.68963  1.0000
  Hf  Hf9       1.0  0.25047  0.39455  0.89863  1.0000
  Hf  Hf10      1.0  0.25047  0.60545  0.10137  1.0000
  Hf  Hf11      1.0  0.74953  0.10545  0.39863  1.0000
  Hf  Hf12      1.0  0.74953  0.89455  0.60137  1.0000
  Hf  Hf13      1.0  0.74927  0.50000  0.50000  1.0000
  Hf  Hf14      1.0  0.25073  0.00000  0.00000  1.0000
  N   N1        1.0  0.74987  0.20248  0.60200  1.0000
  N   N2        1.0  0.74987  0.79752  0.39800  1.0000
  N   N3        1.0  0.25013  0.29752  0.10200  1.0000
  N   N4        1.0  0.25013  0.70248  0.89800  1.0000
  N   N5        1.0  0.24897  0.50000  0.50000  1.0000
  N   N6        1.0  0.75103  0.00000  0.00000  1.0000
  N   N7        1.0  0.25061  0.00000  0.50000  1.0000
  N   N8        1.0  0.74939  0.50000  0.00000  1.0000
