data_image0
_chemical_formula_structural       Ga8S12
_chemical_formula_sum              "Ga8 S12"
_cell_length_a       3.55687
_cell_length_b       10.0415
_cell_length_c       14.7782
_cell_angle_alpha    90
_cell_angle_beta     90
_cell_angle_gamma    90

_space_group_name_H-M_alt    "P 1"
_space_group_IT_number       1

loop_
  _space_group_symop_operation_xyz
  'x, y, z'

loop_
  _atom_site_type_symbol
  _atom_site_label
  _atom_site_symmetry_multiplicity
  _atom_site_fract_x
  _atom_site_fract_y
  _atom_site_fract_z
  _atom_site_occupancy
  Ga  Ga1       1.0  0.25000  0.92489  0.92892  1.0000
  Ga  Ga2       1.0  0.75000  0.07511  0.07108  1.0000
  Ga  Ga3       1.0  0.75000  0.42489  0.57108  1.0000
  Ga  Ga4       1.0  0.25000  0.57511  0.42892  1.0000
  Ga  Ga5       1.0  0.25000  0.08060  0.56723  1.0000
  Ga  Ga6       1.0  0.75000  0.91940  0.43277  1.0000
  Ga  Ga7       1.0  0.75000  0.58060  0.93277  1.0000
  Ga  Ga8       1.0  0.25000  0.41940  0.06723  1.0000
  S   S1        1.0  0.25000  0.28009  0.63356  1.0000
  S   S2        1.0  0.75000  0.71991  0.36644  1.0000
  S   S3        1.0  0.75000  0.78009  0.86644  1.0000
  S   S4        1.0  0.25000  0.21991  0.13356  1.0000
  S   S5        1.0  0.25000  0.06230  0.40524  1.0000
  S   S6        1.0  0.75000  0.93770  0.59476  1.0000
  S   S7        1.0  0.75000  0.56230  0.09476  1.0000
  S   S8        1.0  0.25000  0.43770  0.90524  1.0000
  S   S9        1.0  0.25000  0.90873  0.08660  1.0000
  S   S10       1.0  0.75000  0.09127  0.91340  1.0000
  S   S11       1.0  0.75000  0.40873  0.41340  1.0000
  S   S12       1.0  0.25000  0.59127  0.58660  1.0000
