data_image0
_chemical_formula_structural       In2Ag5
_chemical_formula_sum              "In2 Ag5"
_cell_length_a       5.24608
_cell_length_b       5.24608
_cell_length_c       6.88376
_cell_angle_alpha    82.6464
_cell_angle_beta     82.6464
_cell_angle_gamma    46.2908

_space_group_name_H-M_alt    "P 1"
_space_group_IT_number       1

loop_
  _space_group_symop_operation_xyz
  'x, y, z'

loop_
  _atom_site_type_symbol
  _atom_site_label
  _atom_site_symmetry_multiplicity
  _atom_site_fract_x
  _atom_site_fract_y
  _atom_site_fract_z
  _atom_site_occupancy
  In  In1       1.0  0.42270  0.42270  0.72289  1.0000
  In  In2       1.0  0.57730  0.57730  0.27711  1.0000
  Ag  Ag1       1.0  0.14257  0.14257  0.57194  1.0000
  Ag  Ag2       1.0  0.28772  0.28772  0.14402  1.0000
  Ag  Ag3       1.0  0.71228  0.71228  0.85598  1.0000
  Ag  Ag4       1.0  0.85743  0.85743  0.42806  1.0000
  Ag  Ag5       1.0  0.00000  0.00000  0.00000  1.0000
