data_image0
_chemical_formula_structural       F10Hf6
_chemical_formula_sum              "F10 Hf6"
_cell_length_a       6.74566
_cell_length_b       6.74566
_cell_length_c       6.74566
_cell_angle_alpha    118.21
_cell_angle_beta     118.21
_cell_angle_gamma    93.1302

_space_group_name_H-M_alt    "P 1"
_space_group_IT_number       1

loop_
  _space_group_symop_operation_xyz
  'x, y, z'

loop_
  _atom_site_type_symbol
  _atom_site_label
  _atom_site_symmetry_multiplicity
  _atom_site_fract_x
  _atom_site_fract_y
  _atom_site_fract_z
  _atom_site_occupancy
  F   F1        1.0  0.50591  0.75669  0.50000  1.0000
  F   F2        1.0  0.49409  0.24331  0.50000  1.0000
  F   F3        1.0  0.50000  0.50000  0.00000  1.0000
  F   F4        1.0  0.00000  0.00000  0.00000  1.0000
  F   F5        1.0  0.25669  0.00591  0.50000  1.0000
  F   F6        1.0  0.00591  0.50591  0.74922  1.0000
  F   F7        1.0  0.75669  0.25669  0.25078  1.0000
  F   F8        1.0  0.24331  0.74331  0.74922  1.0000
  F   F9        1.0  0.99409  0.49409  0.25078  1.0000
  F   F10       1.0  0.74331  0.99409  0.50000  1.0000
  Hf  Hf1       1.0  0.81775  0.68225  0.50000  1.0000
  Hf  Hf2       1.0  0.68225  0.18225  0.86450  1.0000
  Hf  Hf3       1.0  0.31775  0.81775  0.13550  1.0000
  Hf  Hf4       1.0  0.18225  0.31775  0.50000  1.0000
  Hf  Hf5       1.0  0.25000  0.25000  0.00000  1.0000
  Hf  Hf6       1.0  0.75000  0.75000  0.00000  1.0000
