data_image0
_chemical_formula_structural       Br10Hf6
_chemical_formula_sum              "Br10 Hf6"
_cell_length_a       8.17592
_cell_length_b       8.17592
_cell_length_c       8.17592
_cell_angle_alpha    123.674
_cell_angle_beta     123.674
_cell_angle_gamma    83.7465

_space_group_name_H-M_alt    "P 1"
_space_group_IT_number       1

loop_
  _space_group_symop_operation_xyz
  'x, y, z'

loop_
  _atom_site_type_symbol
  _atom_site_label
  _atom_site_symmetry_multiplicity
  _atom_site_fract_x
  _atom_site_fract_y
  _atom_site_fract_z
  _atom_site_occupancy
  Br  Br1       1.0  0.51480  0.70004  0.50000  1.0000
  Br  Br2       1.0  0.48520  0.29996  0.50000  1.0000
  Br  Br3       1.0  0.50000  0.50000  0.00000  1.0000
  Br  Br4       1.0  0.00000  0.00000  0.00000  1.0000
  Br  Br5       1.0  0.20004  0.01480  0.50000  1.0000
  Br  Br6       1.0  0.01480  0.51480  0.81475  1.0000
  Br  Br7       1.0  0.70004  0.20004  0.18525  1.0000
  Br  Br8       1.0  0.29996  0.79996  0.81475  1.0000
  Br  Br9       1.0  0.98520  0.48520  0.18525  1.0000
  Br  Br10      1.0  0.79996  0.98520  0.50000  1.0000
  Hf  Hf1       1.0  0.85952  0.64048  0.50000  1.0000
  Hf  Hf2       1.0  0.64048  0.14048  0.78096  1.0000
  Hf  Hf3       1.0  0.35952  0.85952  0.21904  1.0000
  Hf  Hf4       1.0  0.14048  0.35952  0.50000  1.0000
  Hf  Hf5       1.0  0.25000  0.25000  0.00000  1.0000
  Hf  Hf6       1.0  0.75000  0.75000  1.00000  1.0000
