data_image0
_chemical_formula_structural       Hf6S6
_chemical_formula_sum              "Hf6 S6"
_cell_length_a       3.94902
_cell_length_b       3.94902
_cell_length_c       22.6197
_cell_angle_alpha    90
_cell_angle_beta     90
_cell_angle_gamma    116.121

_space_group_name_H-M_alt    "P 1"
_space_group_IT_number       1

loop_
  _space_group_symop_operation_xyz
  'x, y, z'

loop_
  _atom_site_type_symbol
  _atom_site_label
  _atom_site_symmetry_multiplicity
  _atom_site_fract_x
  _atom_site_fract_y
  _atom_site_fract_z
  _atom_site_occupancy
  Hf  Hf1       1.0  0.34401  0.65599  0.13948  1.0000
  Hf  Hf2       1.0  0.65599  0.34401  0.86052  1.0000
  Hf  Hf3       1.0  0.65599  0.34401  0.63948  1.0000
  Hf  Hf4       1.0  0.34401  0.65599  0.36052  1.0000
  Hf  Hf5       1.0  0.34744  0.65256  0.75000  1.0000
  Hf  Hf6       1.0  0.65256  0.34744  0.25000  1.0000
  S   S1        1.0  0.69829  0.30171  0.75000  1.0000
  S   S2        1.0  0.30171  0.69829  0.25000  1.0000
  S   S3        1.0  0.00531  0.99469  0.59310  1.0000
  S   S4        1.0  0.99469  0.00531  0.09310  1.0000
  S   S5        1.0  0.00531  0.99469  0.90690  1.0000
  S   S6        1.0  0.99469  0.00531  0.40690  1.0000
