data_image0
_chemical_formula_structural       Ga6S16
_chemical_formula_sum              "Ga6 S16"
_cell_length_a       6.05331
_cell_length_b       6.05453
_cell_length_c       13.2411
_cell_angle_alpha    63.8571
_cell_angle_beta     90
_cell_angle_gamma    90

_space_group_name_H-M_alt    "P 1"
_space_group_IT_number       1

loop_
  _space_group_symop_operation_xyz
  'x, y, z'

loop_
  _atom_site_type_symbol
  _atom_site_label
  _atom_site_symmetry_multiplicity
  _atom_site_fract_x
  _atom_site_fract_y
  _atom_site_fract_z
  _atom_site_occupancy
  Ga  Ga1       1.0  0.48344  0.77358  0.74809  1.0000
  Ga  Ga2       1.0  0.51656  0.22642  0.25191  1.0000
  Ga  Ga3       1.0  0.50000  0.00000  0.00000  1.0000
  Ga  Ga4       1.0  0.98344  0.22642  0.75191  1.0000
  Ga  Ga5       1.0  0.01656  0.77358  0.24809  1.0000
  Ga  Ga6       1.0  0.00000  0.00000  0.50000  1.0000
  S   S1        1.0  0.59993  0.70422  0.19892  1.0000
  S   S2        1.0  0.59224  0.21024  0.69463  1.0000
  S   S3        1.0  0.60129  0.64607  0.95151  1.0000
  S   S4        1.0  0.59837  0.15025  0.45282  1.0000
  S   S5        1.0  0.90163  0.15025  0.95282  1.0000
  S   S6        1.0  0.90776  0.21024  0.19463  1.0000
  S   S7        1.0  0.89871  0.64607  0.45151  1.0000
  S   S8        1.0  0.90007  0.70422  0.69892  1.0000
  S   S9        1.0  0.09224  0.78976  0.80537  1.0000
  S   S10       1.0  0.09837  0.84975  0.04718  1.0000
  S   S11       1.0  0.10129  0.35393  0.54849  1.0000
  S   S12       1.0  0.09993  0.29578  0.30108  1.0000
  S   S13       1.0  0.39871  0.35393  0.04849  1.0000
  S   S14       1.0  0.40007  0.29578  0.80108  1.0000
  S   S15       1.0  0.40776  0.78976  0.30537  1.0000
  S   S16       1.0  0.40163  0.84975  0.54718  1.0000
