data_image0
_chemical_formula_structural       Hf6Hg16
_chemical_formula_sum              "Hf6 Hg16"
_cell_length_a       5.97152
_cell_length_b       6.46546
_cell_length_c       13.4153
_cell_angle_alpha    82.5434
_cell_angle_beta     90
_cell_angle_gamma    90

_space_group_name_H-M_alt    "P 1"
_space_group_IT_number       1

loop_
  _space_group_symop_operation_xyz
  'x, y, z'

loop_
  _atom_site_type_symbol
  _atom_site_label
  _atom_site_symmetry_multiplicity
  _atom_site_fract_x
  _atom_site_fract_y
  _atom_site_fract_z
  _atom_site_occupancy
  Hf  Hf1       1.0  0.64763  0.92594  0.79495  1.0000
  Hf  Hf2       1.0  0.35237  0.07406  0.20505  1.0000
  Hf  Hf3       1.0  0.50000  0.00000  0.00000  1.0000
  Hf  Hf4       1.0  0.14763  0.07406  0.70505  1.0000
  Hf  Hf5       1.0  0.85237  0.92594  0.29495  1.0000
  Hf  Hf6       1.0  0.00000  0.00000  0.50000  1.0000
  Hg  Hg1       1.0  0.56482  0.63649  0.19369  1.0000
  Hg  Hg2       1.0  0.68852  0.23156  0.61702  1.0000
  Hg  Hg3       1.0  0.73053  0.60491  0.96427  1.0000
  Hg  Hg4       1.0  0.57173  0.22332  0.38543  1.0000
  Hg  Hg5       1.0  0.92827  0.22332  0.88543  1.0000
  Hg  Hg6       1.0  0.81148  0.23156  0.11702  1.0000
  Hg  Hg7       1.0  0.76947  0.60491  0.46427  1.0000
  Hg  Hg8       1.0  0.93518  0.63649  0.69369  1.0000
  Hg  Hg9       1.0  0.18852  0.76844  0.88298  1.0000
  Hg  Hg10      1.0  0.07173  0.77668  0.11457  1.0000
  Hg  Hg11      1.0  0.23053  0.39509  0.53573  1.0000
  Hg  Hg12      1.0  0.06482  0.36351  0.30631  1.0000
  Hg  Hg13      1.0  0.26947  0.39509  0.03573  1.0000
  Hg  Hg14      1.0  0.43518  0.36351  0.80631  1.0000
  Hg  Hg15      1.0  0.31148  0.76844  0.38298  1.0000
  Hg  Hg16      1.0  0.42827  0.77668  0.61457  1.0000
