data_image0
_chemical_formula_structural       HfSe4
_chemical_formula_sum              "Hf1 Se4"
_cell_length_a       6.43632
_cell_length_b       6.43632
_cell_length_c       6.43632
_cell_angle_alpha    94.3079
_cell_angle_beta     94.3079
_cell_angle_gamma    148.186

_space_group_name_H-M_alt    "P 1"
_space_group_IT_number       1

loop_
  _space_group_symop_operation_xyz
  'x, y, z'

loop_
  _atom_site_type_symbol
  _atom_site_label
  _atom_site_symmetry_multiplicity
  _atom_site_fract_x
  _atom_site_fract_y
  _atom_site_fract_z
  _atom_site_occupancy
  Hf  Hf1       1.0  0.00000  0.00000  0.00000  1.0000
  Se  Se1       1.0  0.60148  0.71808  0.31956  1.0000
  Se  Se2       1.0  0.39852  0.28192  0.68044  1.0000
  Se  Se3       1.0  0.28192  0.60148  0.88339  1.0000
  Se  Se4       1.0  0.71808  0.39852  0.11661  1.0000
