data_image0
_chemical_formula_structural       Ga4S12
_chemical_formula_sum              "Ga4 S12"
_cell_length_a       9.78092
_cell_length_b       9.78092
_cell_length_c       5.25132
_cell_angle_alpha    90
_cell_angle_beta     90
_cell_angle_gamma    135.778

_space_group_name_H-M_alt    "P 1"
_space_group_IT_number       1

loop_
  _space_group_symop_operation_xyz
  'x, y, z'

loop_
  _atom_site_type_symbol
  _atom_site_label
  _atom_site_symmetry_multiplicity
  _atom_site_fract_x
  _atom_site_fract_y
  _atom_site_fract_z
  _atom_site_occupancy
  Ga  Ga1       1.0  0.66720  0.33280  0.00000  1.0000
  Ga  Ga2       1.0  0.33280  0.66720  0.00000  1.0000
  Ga  Ga3       1.0  0.16720  0.83280  0.50000  1.0000
  Ga  Ga4       1.0  0.83280  0.16720  0.50000  1.0000
  S   S1        1.0  0.58333  0.58333  0.24265  1.0000
  S   S2        1.0  0.08333  0.08333  0.25735  1.0000
  S   S3        1.0  0.91667  0.91667  0.74265  1.0000
  S   S4        1.0  0.41585  0.58415  0.50000  1.0000
  S   S5        1.0  0.99623  0.49623  0.75000  1.0000
  S   S6        1.0  0.91585  0.08415  0.00000  1.0000
  S   S7        1.0  0.00377  0.50377  0.25000  1.0000
  S   S8        1.0  0.41667  0.41667  0.75735  1.0000
  S   S9        1.0  0.58415  0.41585  0.50000  1.0000
  S   S10       1.0  0.08415  0.91585  0.00000  1.0000
  S   S11       1.0  0.50377  0.00377  0.25000  1.0000
  S   S12       1.0  0.49623  0.99623  0.75000  1.0000
