data_image0
_chemical_formula_structural       Hf3Se8
_chemical_formula_sum              "Hf3 Se8"
_cell_length_a       6.577
_cell_length_b       6.577
_cell_length_c       6.577
_cell_angle_alpha    89.3441
_cell_angle_beta     89.3441
_cell_angle_gamma    89.3441

_space_group_name_H-M_alt    "P 1"
_space_group_IT_number       1

loop_
  _space_group_symop_operation_xyz
  'x, y, z'

loop_
  _atom_site_type_symbol
  _atom_site_label
  _atom_site_symmetry_multiplicity
  _atom_site_fract_x
  _atom_site_fract_y
  _atom_site_fract_z
  _atom_site_occupancy
  Hf  Hf1       1.0  0.50000  0.00000  0.50000  1.0000
  Hf  Hf2       1.0  0.00000  0.50000  0.50000  1.0000
  Hf  Hf3       1.0  0.50000  0.50000  0.00000  1.0000
  Se  Se1       1.0  0.59571  0.87973  0.12665  1.0000
  Se  Se2       1.0  0.87973  0.12665  0.59571  1.0000
  Se  Se3       1.0  0.12665  0.59571  0.87973  1.0000
  Se  Se4       1.0  0.64684  0.64684  0.64684  1.0000
  Se  Se5       1.0  0.35316  0.35316  0.35316  1.0000
  Se  Se6       1.0  0.87335  0.40429  0.12027  1.0000
  Se  Se7       1.0  0.12027  0.87335  0.40429  1.0000
  Se  Se8       1.0  0.40429  0.12027  0.87335  1.0000
