data_image0
_chemical_formula_structural       InAg4
_chemical_formula_sum              "In1 Ag4"
_cell_length_a       5.17173
_cell_length_b       5.17173
_cell_length_c       5.17173
_cell_angle_alpha    99.7316
_cell_angle_beta     99.7316
_cell_angle_gamma    131.447

_space_group_name_H-M_alt    "P 1"
_space_group_IT_number       1

loop_
  _space_group_symop_operation_xyz
  'x, y, z'

loop_
  _atom_site_type_symbol
  _atom_site_label
  _atom_site_symmetry_multiplicity
  _atom_site_fract_x
  _atom_site_fract_y
  _atom_site_fract_z
  _atom_site_occupancy
  In  In1       1.0  0.00000  0.00000  0.00000  1.0000
  Ag  Ag1       1.0  0.60043  0.80264  0.40307  1.0000
  Ag  Ag2       1.0  0.39957  0.19736  0.59693  1.0000
  Ag  Ag3       1.0  0.19736  0.60043  0.79779  1.0000
  Ag  Ag4       1.0  0.80264  0.39957  0.20221  1.0000
