data_image0
_chemical_formula_structural       Hf14Br8
_chemical_formula_sum              "Hf14 Br8"
_cell_length_a       7.08657
_cell_length_b       6.5528
_cell_length_c       11.0507
_cell_angle_alpha    90
_cell_angle_beta     90
_cell_angle_gamma    90

_space_group_name_H-M_alt    "P 1"
_space_group_IT_number       1

loop_
  _space_group_symop_operation_xyz
  'x, y, z'

loop_
  _atom_site_type_symbol
  _atom_site_label
  _atom_site_symmetry_multiplicity
  _atom_site_fract_x
  _atom_site_fract_y
  _atom_site_fract_z
  _atom_site_occupancy
  Hf  Hf1       1.0  0.34866  0.22208  0.54858  1.0000
  Hf  Hf2       1.0  0.34866  0.77792  0.45142  1.0000
  Hf  Hf3       1.0  0.65134  0.27792  0.04858  1.0000
  Hf  Hf4       1.0  0.65134  0.72208  0.95142  1.0000
  Hf  Hf5       1.0  0.09736  0.02900  0.74899  1.0000
  Hf  Hf6       1.0  0.09736  0.97100  0.25101  1.0000
  Hf  Hf7       1.0  0.90264  0.47100  0.24899  1.0000
  Hf  Hf8       1.0  0.90264  0.52900  0.75101  1.0000
  Hf  Hf9       1.0  0.43627  0.30873  0.81347  1.0000
  Hf  Hf10      1.0  0.43627  0.69127  0.18653  1.0000
  Hf  Hf11      1.0  0.56373  0.19127  0.31347  1.0000
  Hf  Hf12      1.0  0.56373  0.80873  0.68653  1.0000
  Hf  Hf13      1.0  0.67841  0.50000  0.50000  1.0000
  Hf  Hf14      1.0  0.32159  0.00000  0.00000  1.0000
  Br  Br1       1.0  0.72874  0.18745  0.67130  1.0000
  Br  Br2       1.0  0.72874  0.81255  0.32870  1.0000
  Br  Br3       1.0  0.27126  0.31255  0.17130  1.0000
  Br  Br4       1.0  0.27126  0.68745  0.82870  1.0000
  Br  Br5       1.0  0.06746  0.50000  0.50000  1.0000
  Br  Br6       1.0  0.93254  0.00000  0.00000  1.0000
  Br  Br7       1.0  0.03093  0.00000  0.50000  1.0000
  Br  Br8       1.0  0.96907  0.50000  0.00000  1.0000
