data_image0
_chemical_formula_structural       Hf6Se6
_chemical_formula_sum              "Hf6 Se6"
_cell_length_a       3.64119
_cell_length_b       3.64119
_cell_length_c       24.67
_cell_angle_alpha    90
_cell_angle_beta     90
_cell_angle_gamma    91.2932

_space_group_name_H-M_alt    "P 1"
_space_group_IT_number       1

loop_
  _space_group_symop_operation_xyz
  'x, y, z'

loop_
  _atom_site_type_symbol
  _atom_site_label
  _atom_site_symmetry_multiplicity
  _atom_site_fract_x
  _atom_site_fract_y
  _atom_site_fract_z
  _atom_site_occupancy
  Hf  Hf1       1.0  0.41811  0.58189  0.14628  1.0000
  Hf  Hf2       1.0  0.58189  0.41811  0.85372  1.0000
  Hf  Hf3       1.0  0.58189  0.41811  0.64628  1.0000
  Hf  Hf4       1.0  0.41811  0.58189  0.35372  1.0000
  Hf  Hf5       1.0  0.26749  0.73251  0.75000  1.0000
  Hf  Hf6       1.0  0.73251  0.26749  0.25000  1.0000
  Se  Se1       1.0  0.76696  0.23304  0.75000  1.0000
  Se  Se2       1.0  0.23304  0.76696  0.25000  1.0000
  Se  Se3       1.0  0.08321  0.91679  0.60500  1.0000
  Se  Se4       1.0  0.91679  0.08321  0.10500  1.0000
  Se  Se5       1.0  0.08321  0.91679  0.89500  1.0000
  Se  Se6       1.0  0.91679  0.08321  0.39500  1.0000
