data_image0
_chemical_formula_structural       HfI4
_chemical_formula_sum              "Hf1 I4"
_cell_length_a       8.05208
_cell_length_b       8.05208
_cell_length_c       8.05208
_cell_angle_alpha    92.8054
_cell_angle_beta     92.8054
_cell_angle_gamma    154.437

_space_group_name_H-M_alt    "P 1"
_space_group_IT_number       1

loop_
  _space_group_symop_operation_xyz
  'x, y, z'

loop_
  _atom_site_type_symbol
  _atom_site_label
  _atom_site_symmetry_multiplicity
  _atom_site_fract_x
  _atom_site_fract_y
  _atom_site_fract_z
  _atom_site_occupancy
  Hf  Hf1       1.0  0.00000  0.00000  0.00000  1.0000
  I   I1        1.0  0.55666  0.71634  0.27300  1.0000
  I   I2        1.0  0.44334  0.28366  0.72700  1.0000
  I   I3        1.0  0.28366  0.55666  0.84032  1.0000
  I   I4        1.0  0.71634  0.44334  0.15968  1.0000
