data_image0
_chemical_formula_structural       Hf4N8
_chemical_formula_sum              "Hf4 N8"
_cell_length_a       7.94631
_cell_length_b       7.94631
_cell_length_c       5.64995
_cell_angle_alpha    90
_cell_angle_beta     90
_cell_angle_gamma    156.969

_space_group_name_H-M_alt    "P 1"
_space_group_IT_number       1

loop_
  _space_group_symop_operation_xyz
  'x, y, z'

loop_
  _atom_site_type_symbol
  _atom_site_label
  _atom_site_symmetry_multiplicity
  _atom_site_fract_x
  _atom_site_fract_y
  _atom_site_fract_z
  _atom_site_occupancy
  Hf  Hf1       1.0  0.64998  0.35002  0.61705  1.0000
  Hf  Hf2       1.0  0.35002  0.64998  0.11705  1.0000
  Hf  Hf3       1.0  0.96243  0.03757  0.64459  1.0000
  Hf  Hf4       1.0  0.03757  0.96243  0.14459  1.0000
  N   N1        1.0  0.10132  0.89868  0.79881  1.0000
  N   N2        1.0  0.89868  0.10132  0.29881  1.0000
  N   N3        1.0  0.26684  0.73316  0.57789  1.0000
  N   N4        1.0  0.73316  0.26684  0.07789  1.0000
  N   N5        1.0  0.66851  0.33149  0.20616  1.0000
  N   N6        1.0  0.33149  0.66851  0.70616  1.0000
  N   N7        1.0  0.52993  0.47007  0.44350  1.0000
  N   N8        1.0  0.47007  0.52993  0.94350  1.0000
