data_image0
_chemical_formula_structural       Se9Hf13
_chemical_formula_sum              "Se9 Hf13"
_cell_length_a       9.43046
_cell_length_b       9.43046
_cell_length_c       5.68168
_cell_angle_alpha    90
_cell_angle_beta     90
_cell_angle_gamma    120

_space_group_name_H-M_alt    "P 1"
_space_group_IT_number       1

loop_
  _space_group_symop_operation_xyz
  'x, y, z'

loop_
  _atom_site_type_symbol
  _atom_site_label
  _atom_site_symmetry_multiplicity
  _atom_site_fract_x
  _atom_site_fract_y
  _atom_site_fract_z
  _atom_site_occupancy
  Se  Se1       1.0  0.00000  0.00000  0.50000  1.0000
  Se  Se2       1.0  0.33333  0.66667  0.71998  1.0000
  Se  Se3       1.0  0.66667  0.33333  0.28002  1.0000
  Se  Se4       1.0  0.19463  0.80537  0.22070  1.0000
  Se  Se5       1.0  0.19463  0.38925  0.22070  1.0000
  Se  Se6       1.0  0.61075  0.80537  0.22070  1.0000
  Se  Se7       1.0  0.38925  0.19463  0.77930  1.0000
  Se  Se8       1.0  0.80537  0.61075  0.77930  1.0000
  Se  Se9       1.0  0.80537  0.19463  0.77930  1.0000
  Hf  Hf1       1.0  0.00000  0.00000  0.00000  1.0000
  Hf  Hf2       1.0  0.50000  0.00000  0.00000  1.0000
  Hf  Hf3       1.0  0.00000  0.50000  0.00000  1.0000
  Hf  Hf4       1.0  0.50000  0.50000  0.00000  1.0000
  Hf  Hf5       1.0  0.50000  0.00000  0.50000  1.0000
  Hf  Hf6       1.0  0.00000  0.50000  0.50000  1.0000
  Hf  Hf7       1.0  0.50000  0.50000  0.50000  1.0000
  Hf  Hf8       1.0  0.15544  0.84456  0.72409  1.0000
  Hf  Hf9       1.0  0.15544  0.31088  0.72409  1.0000
  Hf  Hf10      1.0  0.68912  0.84456  0.72409  1.0000
  Hf  Hf11      1.0  0.31088  0.15544  0.27591  1.0000
  Hf  Hf12      1.0  0.84456  0.68912  0.27591  1.0000
  Hf  Hf13      1.0  0.84456  0.15544  0.27591  1.0000
