data_image0
_chemical_formula_structural       Hf3S8
_chemical_formula_sum              "Hf3 S8"
_cell_length_a       6.25152
_cell_length_b       6.25152
_cell_length_c       6.25152
_cell_angle_alpha    89.1708
_cell_angle_beta     89.1708
_cell_angle_gamma    89.1708

_space_group_name_H-M_alt    "P 1"
_space_group_IT_number       1

loop_
  _space_group_symop_operation_xyz
  'x, y, z'

loop_
  _atom_site_type_symbol
  _atom_site_label
  _atom_site_symmetry_multiplicity
  _atom_site_fract_x
  _atom_site_fract_y
  _atom_site_fract_z
  _atom_site_occupancy
  Hf  Hf1       1.0  0.50000  0.00000  0.50000  1.0000
  Hf  Hf2       1.0  0.00000  0.50000  0.50000  1.0000
  Hf  Hf3       1.0  0.50000  0.50000  0.00000  1.0000
  S   S1        1.0  0.57754  0.88863  0.11984  1.0000
  S   S2        1.0  0.88863  0.11984  0.57754  1.0000
  S   S3        1.0  0.11984  0.57754  0.88863  1.0000
  S   S4        1.0  0.64810  0.64810  0.64810  1.0000
  S   S5        1.0  0.35190  0.35190  0.35190  1.0000
  S   S6        1.0  0.88016  0.42246  0.11137  1.0000
  S   S7        1.0  0.11137  0.88016  0.42246  1.0000
  S   S8        1.0  0.42246  0.11137  0.88016  1.0000
