data_image0
_chemical_formula_structural       Hf8I16
_chemical_formula_sum              "Hf8 I16"
_cell_length_a       6.13784
_cell_length_b       7.50074
_cell_length_c       19.008
_cell_angle_alpha    90
_cell_angle_beta     90
_cell_angle_gamma    90

_space_group_name_H-M_alt    "P 1"
_space_group_IT_number       1

loop_
  _space_group_symop_operation_xyz
  'x, y, z'

loop_
  _atom_site_type_symbol
  _atom_site_label
  _atom_site_symmetry_multiplicity
  _atom_site_fract_x
  _atom_site_fract_y
  _atom_site_fract_z
  _atom_site_occupancy
  Hf  Hf1       1.0  0.61712  0.69966  0.12509  1.0000
  Hf  Hf2       1.0  0.88288  0.80034  0.62509  1.0000
  Hf  Hf3       1.0  0.88288  0.19966  0.87491  1.0000
  Hf  Hf4       1.0  0.61712  0.30034  0.37491  1.0000
  Hf  Hf5       1.0  0.38288  0.30034  0.87491  1.0000
  Hf  Hf6       1.0  0.11712  0.19966  0.37491  1.0000
  Hf  Hf7       1.0  0.11712  0.80034  0.12509  1.0000
  Hf  Hf8       1.0  0.38288  0.69966  0.62509  1.0000
  I   I1        1.0  0.48246  0.50000  0.25000  1.0000
  I   I2        1.0  0.01754  0.00000  0.75000  1.0000
  I   I3        1.0  0.51754  0.50000  0.75000  1.0000
  I   I4        1.0  0.98246  0.00000  0.25000  1.0000
  I   I5        1.0  0.48109  0.94587  0.37139  1.0000
  I   I6        1.0  0.01891  0.55413  0.87139  1.0000
  I   I7        1.0  0.01891  0.44587  0.62861  1.0000
  I   I8        1.0  0.48109  0.05413  0.12861  1.0000
  I   I9        1.0  0.51891  0.05413  0.62861  1.0000
  I   I10       1.0  0.98109  0.44587  0.12861  1.0000
  I   I11       1.0  0.98109  0.55413  0.37139  1.0000
  I   I12       1.0  0.51891  0.94587  0.87139  1.0000
  I   I13       1.0  0.50000  0.50000  0.00000  1.0000
  I   I14       1.0  0.00000  0.00000  0.50000  1.0000
  I   I15       1.0  0.00000  0.00000  0.00000  1.0000
  I   I16       1.0  0.50000  0.50000  0.50000  1.0000
