data_image0
_chemical_formula_structural       Hf4S12
_chemical_formula_sum              "Hf4 S12"
_cell_length_a       9.34247
_cell_length_b       9.34247
_cell_length_c       5.03284
_cell_angle_alpha    90
_cell_angle_beta     90
_cell_angle_gamma    139.506

_space_group_name_H-M_alt    "P 1"
_space_group_IT_number       1

loop_
  _space_group_symop_operation_xyz
  'x, y, z'

loop_
  _atom_site_type_symbol
  _atom_site_label
  _atom_site_symmetry_multiplicity
  _atom_site_fract_x
  _atom_site_fract_y
  _atom_site_fract_z
  _atom_site_occupancy
  Hf  Hf1       1.0  0.65010  0.34990  0.00000  1.0000
  Hf  Hf2       1.0  0.34990  0.65010  0.00000  1.0000
  Hf  Hf3       1.0  0.15010  0.84990  0.50000  1.0000
  Hf  Hf4       1.0  0.84990  0.15010  0.50000  1.0000
  S   S1        1.0  0.65670  0.65670  0.99840  1.0000
  S   S2        1.0  0.15670  0.15670  0.50160  1.0000
  S   S3        1.0  0.84330  0.84330  0.49840  1.0000
  S   S4        1.0  0.38958  0.61042  0.50000  1.0000
  S   S5        1.0  0.00030  0.50030  0.75000  1.0000
  S   S6        1.0  0.88958  0.11042  0.00000  1.0000
  S   S7        1.0  0.99970  0.49970  0.25000  1.0000
  S   S8        1.0  0.34330  0.34330  0.00160  1.0000
  S   S9        1.0  0.61042  0.38958  0.50000  1.0000
  S   S10       1.0  0.11042  0.88958  0.00000  1.0000
  S   S11       1.0  0.49970  0.99970  0.25000  1.0000
  S   S12       1.0  0.50030  0.00030  0.75000  1.0000
