data_image0
_chemical_formula_structural       I8Hf12
_chemical_formula_sum              "I8 Hf12"
_cell_length_a       6.28989
_cell_length_b       6.28989
_cell_length_c       15.5739
_cell_angle_alpha    90
_cell_angle_beta     90
_cell_angle_gamma    120

_space_group_name_H-M_alt    "P 1"
_space_group_IT_number       1

loop_
  _space_group_symop_operation_xyz
  'x, y, z'

loop_
  _atom_site_type_symbol
  _atom_site_label
  _atom_site_symmetry_multiplicity
  _atom_site_fract_x
  _atom_site_fract_y
  _atom_site_fract_z
  _atom_site_occupancy
  I   I1        1.0  0.00000  0.00000  0.25000  1.0000
  I   I2        1.0  0.00000  0.00000  0.75000  1.0000
  I   I3        1.0  0.33333  0.66667  0.25000  1.0000
  I   I4        1.0  0.66667  0.33333  0.75000  1.0000
  I   I5        1.0  0.33333  0.66667  0.62177  1.0000
  I   I6        1.0  0.66667  0.33333  0.12177  1.0000
  I   I7        1.0  0.66667  0.33333  0.37823  1.0000
  I   I8        1.0  0.33333  0.66667  0.87823  1.0000
  Hf  Hf1       1.0  0.16769  0.33538  0.42492  1.0000
  Hf  Hf2       1.0  0.16769  0.83231  0.42492  1.0000
  Hf  Hf3       1.0  0.66462  0.83231  0.42492  1.0000
  Hf  Hf4       1.0  0.83231  0.16769  0.92492  1.0000
  Hf  Hf5       1.0  0.33538  0.16769  0.92492  1.0000
  Hf  Hf6       1.0  0.83231  0.66462  0.92492  1.0000
  Hf  Hf7       1.0  0.83231  0.66462  0.57508  1.0000
  Hf  Hf8       1.0  0.83231  0.16769  0.57508  1.0000
  Hf  Hf9       1.0  0.33538  0.16769  0.57508  1.0000
  Hf  Hf10      1.0  0.16769  0.83231  0.07508  1.0000
  Hf  Hf11      1.0  0.66462  0.83231  0.07508  1.0000
  Hf  Hf12      1.0  0.16769  0.33538  0.07508  1.0000
