data_image0
_chemical_formula_structural       Hf6Se16
_chemical_formula_sum              "Hf6 Se16"
_cell_length_a       6.73859
_cell_length_b       6.68745
_cell_length_c       14.907
_cell_angle_alpha    61.2111
_cell_angle_beta     90
_cell_angle_gamma    90

_space_group_name_H-M_alt    "P 1"
_space_group_IT_number       1

loop_
  _space_group_symop_operation_xyz
  'x, y, z'

loop_
  _atom_site_type_symbol
  _atom_site_label
  _atom_site_symmetry_multiplicity
  _atom_site_fract_x
  _atom_site_fract_y
  _atom_site_fract_z
  _atom_site_occupancy
  Hf  Hf1       1.0  0.50739  0.76190  0.74507  1.0000
  Hf  Hf2       1.0  0.49261  0.23810  0.25493  1.0000
  Hf  Hf3       1.0  0.50000  0.00000  0.00000  1.0000
  Hf  Hf4       1.0  0.00739  0.23810  0.75493  1.0000
  Hf  Hf5       1.0  0.99261  0.76190  0.24507  1.0000
  Hf  Hf6       1.0  0.00000  0.00000  0.50000  1.0000
  Se  Se1       1.0  0.63528  0.66729  0.17608  1.0000
  Se  Se2       1.0  0.66354  0.12303  0.71856  1.0000
  Se  Se3       1.0  0.58704  0.67479  0.93813  1.0000
  Se  Se4       1.0  0.61783  0.15550  0.44836  1.0000
  Se  Se5       1.0  0.88217  0.15550  0.94836  1.0000
  Se  Se6       1.0  0.83646  0.12303  0.21856  1.0000
  Se  Se7       1.0  0.91296  0.67479  0.43813  1.0000
  Se  Se8       1.0  0.86472  0.66729  0.67608  1.0000
  Se  Se9       1.0  0.16354  0.87697  0.78144  1.0000
  Se  Se10      1.0  0.11783  0.84450  0.05164  1.0000
  Se  Se11      1.0  0.08704  0.32521  0.56187  1.0000
  Se  Se12      1.0  0.13528  0.33271  0.32392  1.0000
  Se  Se13      1.0  0.41296  0.32521  0.06187  1.0000
  Se  Se14      1.0  0.36472  0.33271  0.82392  1.0000
  Se  Se15      1.0  0.33646  0.87697  0.28144  1.0000
  Se  Se16      1.0  0.38217  0.84450  0.55164  1.0000
