data_image0
_chemical_formula_structural       Hg10Hf6
_chemical_formula_sum              "Hg10 Hf6"
_cell_length_a       8.00678
_cell_length_b       8.00678
_cell_length_c       8.00678
_cell_angle_alpha    122.163
_cell_angle_beta     122.163
_cell_angle_gamma    86.2934

_space_group_name_H-M_alt    "P 1"
_space_group_IT_number       1

loop_
  _space_group_symop_operation_xyz
  'x, y, z'

loop_
  _atom_site_type_symbol
  _atom_site_label
  _atom_site_symmetry_multiplicity
  _atom_site_fract_x
  _atom_site_fract_y
  _atom_site_fract_z
  _atom_site_occupancy
  Hg  Hg1       1.0  0.48419  0.68456  0.50000  1.0000
  Hg  Hg2       1.0  0.51581  0.31544  0.50000  1.0000
  Hg  Hg3       1.0  0.50000  0.50000  0.00000  1.0000
  Hg  Hg4       1.0  0.00000  0.00000  0.00000  1.0000
  Hg  Hg5       1.0  0.18456  0.98419  0.50000  1.0000
  Hg  Hg6       1.0  0.98419  0.48419  0.79964  1.0000
  Hg  Hg7       1.0  0.68456  0.18456  0.20036  1.0000
  Hg  Hg8       1.0  0.31544  0.81544  0.79964  1.0000
  Hg  Hg9       1.0  0.01581  0.51581  0.20036  1.0000
  Hg  Hg10      1.0  0.81544  0.01581  0.50000  1.0000
  Hf  Hf1       1.0  0.85034  0.64966  0.50000  1.0000
  Hf  Hf2       1.0  0.64966  0.14966  0.79932  1.0000
  Hf  Hf3       1.0  0.35034  0.85034  0.20068  1.0000
  Hf  Hf4       1.0  0.14966  0.35034  0.50000  1.0000
  Hf  Hf5       1.0  0.25000  0.25000  0.00000  1.0000
  Hf  Hf6       1.0  0.75000  0.75000  0.00000  1.0000
