data_image0
_chemical_formula_structural       Hf4I8
_chemical_formula_sum              "Hf4 I8"
_cell_length_a       7.24693
_cell_length_b       7.24693
_cell_length_c       7.24693
_cell_angle_alpha    90
_cell_angle_beta     90
_cell_angle_gamma    90

_space_group_name_H-M_alt    "P 1"
_space_group_IT_number       1

loop_
  _space_group_symop_operation_xyz
  'x, y, z'

loop_
  _atom_site_type_symbol
  _atom_site_label
  _atom_site_symmetry_multiplicity
  _atom_site_fract_x
  _atom_site_fract_y
  _atom_site_fract_z
  _atom_site_occupancy
  Hf  Hf1       1.0  0.00000  0.00000  0.00000  1.0000
  Hf  Hf2       1.0  0.50000  0.00000  0.50000  1.0000
  Hf  Hf3       1.0  0.50000  0.50000  0.00000  1.0000
  Hf  Hf4       1.0  0.00000  0.50000  0.50000  1.0000
  I   I1        1.0  0.34644  0.34644  0.34644  1.0000
  I   I2        1.0  0.15356  0.65356  0.84644  1.0000
  I   I3        1.0  0.84644  0.15356  0.65356  1.0000
  I   I4        1.0  0.65356  0.84644  0.15356  1.0000
  I   I5        1.0  0.65356  0.65356  0.65356  1.0000
  I   I6        1.0  0.84644  0.34644  0.15356  1.0000
  I   I7        1.0  0.15356  0.84644  0.34644  1.0000
  I   I8        1.0  0.34644  0.15356  0.84644  1.0000
