data_image0
_chemical_formula_structural       In2Ag4
_chemical_formula_sum              "In2 Ag4"
_cell_length_a       5.27599
_cell_length_b       5.27599
_cell_length_c       4.91518
_cell_angle_alpha    90
_cell_angle_beta     90
_cell_angle_gamma    119.807

_space_group_name_H-M_alt    "P 1"
_space_group_IT_number       1

loop_
  _space_group_symop_operation_xyz
  'x, y, z'

loop_
  _atom_site_type_symbol
  _atom_site_label
  _atom_site_symmetry_multiplicity
  _atom_site_fract_x
  _atom_site_fract_y
  _atom_site_fract_z
  _atom_site_occupancy
  In  In1       1.0  0.19148  0.19148  0.75000  1.0000
  In  In2       1.0  0.80852  0.80852  0.25000  1.0000
  Ag  Ag1       1.0  0.50437  0.84514  0.75000  1.0000
  Ag  Ag2       1.0  0.84514  0.50437  0.75000  1.0000
  Ag  Ag3       1.0  0.15486  0.49563  0.25000  1.0000
  Ag  Ag4       1.0  0.49563  0.15486  0.25000  1.0000
