data_image0
_chemical_formula_structural       In2Br2
_chemical_formula_sum              "In2 Br2"
_cell_length_a       4.00856
_cell_length_b       5.62034
_cell_length_c       5.70711
_cell_angle_alpha    90
_cell_angle_beta     90
_cell_angle_gamma    90

_space_group_name_H-M_alt    "P 1"
_space_group_IT_number       1

loop_
  _space_group_symop_operation_xyz
  'x, y, z'

loop_
  _atom_site_type_symbol
  _atom_site_label
  _atom_site_symmetry_multiplicity
  _atom_site_fract_x
  _atom_site_fract_y
  _atom_site_fract_z
  _atom_site_occupancy
  In  In1       1.0  0.00000  0.75000  0.25252  1.0000
  In  In2       1.0  0.00000  0.25000  0.74748  1.0000
  Br  Br1       1.0  0.50000  0.75000  0.75116  1.0000
  Br  Br2       1.0  0.50000  0.25000  0.24884  1.0000
