data_image0
_chemical_formula_structural       Br10In6
_chemical_formula_sum              "Br10 In6"
_cell_length_a       9.35248
_cell_length_b       9.35248
_cell_length_c       9.35248
_cell_angle_alpha    127.839
_cell_angle_beta     127.839
_cell_angle_gamma    76.8856

_space_group_name_H-M_alt    "P 1"
_space_group_IT_number       1

loop_
  _space_group_symop_operation_xyz
  'x, y, z'

loop_
  _atom_site_type_symbol
  _atom_site_label
  _atom_site_symmetry_multiplicity
  _atom_site_fract_x
  _atom_site_fract_y
  _atom_site_fract_z
  _atom_site_occupancy
  Br  Br1       1.0  0.51494  0.71465  0.50000  1.0000
  Br  Br2       1.0  0.48506  0.28535  0.50000  1.0000
  Br  Br3       1.0  0.50000  0.50000  0.00000  1.0000
  Br  Br4       1.0  0.00000  0.00000  0.00000  1.0000
  Br  Br5       1.0  0.21465  0.01494  0.50000  1.0000
  Br  Br6       1.0  0.01494  0.51494  0.80029  1.0000
  Br  Br7       1.0  0.71465  0.21465  0.19971  1.0000
  Br  Br8       1.0  0.28535  0.78535  0.80029  1.0000
  Br  Br9       1.0  0.98506  0.48506  0.19971  1.0000
  Br  Br10      1.0  0.78535  0.98506  0.50000  1.0000
  In  In1       1.0  0.82463  0.67537  0.50000  1.0000
  In  In2       1.0  0.67537  0.17537  0.85074  1.0000
  In  In3       1.0  0.32463  0.82463  0.14926  1.0000
  In  In4       1.0  0.17537  0.32463  0.50000  1.0000
  In  In5       1.0  0.25000  0.25000  0.00000  1.0000
  In  In6       1.0  0.75000  0.75000  0.00000  1.0000
