data_image0
_chemical_formula_structural       In2Br2
_chemical_formula_sum              "In2 Br2"
_cell_length_a       6.7094
_cell_length_b       6.7094
_cell_length_c       4.66721
_cell_angle_alpha    90
_cell_angle_beta     90
_cell_angle_gamma    139.514

_space_group_name_H-M_alt    "P 1"
_space_group_IT_number       1

loop_
  _space_group_symop_operation_xyz
  'x, y, z'

loop_
  _atom_site_type_symbol
  _atom_site_label
  _atom_site_symmetry_multiplicity
  _atom_site_fract_x
  _atom_site_fract_y
  _atom_site_fract_z
  _atom_site_occupancy
  In  In1       1.0  0.11169  0.88831  0.75000  1.0000
  In  In2       1.0  0.88831  0.11169  0.25000  1.0000
  Br  Br1       1.0  0.35342  0.64658  0.75000  1.0000
  Br  Br2       1.0  0.64658  0.35342  0.25000  1.0000
