data_image0
_chemical_formula_structural       In3Au4
_chemical_formula_sum              "In3 Au4"
_cell_length_a       5.46471
_cell_length_b       5.46471
_cell_length_c       8.98364
_cell_angle_alpha    65.6349
_cell_angle_beta     65.6349
_cell_angle_gamma    41.5461

_space_group_name_H-M_alt    "P 1"
_space_group_IT_number       1

loop_
  _space_group_symop_operation_xyz
  'x, y, z'

loop_
  _atom_site_type_symbol
  _atom_site_label
  _atom_site_symmetry_multiplicity
  _atom_site_fract_x
  _atom_site_fract_y
  _atom_site_fract_z
  _atom_site_occupancy
  In  In1       1.0  0.18277  0.18277  0.89772  1.0000
  In  In2       1.0  0.81723  0.81723  0.10228  1.0000
  In  In3       1.0  0.50000  0.50000  0.50000  1.0000
  Au  Au1       1.0  0.84830  0.84830  0.39915  1.0000
  Au  Au2       1.0  0.15170  0.15170  0.60085  1.0000
  Au  Au3       1.0  0.47537  0.47537  0.84296  1.0000
  Au  Au4       1.0  0.52463  0.52463  0.15704  1.0000
