data_image0
_chemical_formula_structural       In3Au4
_chemical_formula_sum              "In3 Au4"
_cell_length_a       5.48968
_cell_length_b       5.48968
_cell_length_c       9.01089
_cell_angle_alpha    65.3746
_cell_angle_beta     65.3746
_cell_angle_gamma    40.9355

_space_group_name_H-M_alt    "P 1"
_space_group_IT_number       1

loop_
  _space_group_symop_operation_xyz
  'x, y, z'

loop_
  _atom_site_type_symbol
  _atom_site_label
  _atom_site_symmetry_multiplicity
  _atom_site_fract_x
  _atom_site_fract_y
  _atom_site_fract_z
  _atom_site_occupancy
  In  In1       1.0  0.00000  0.00000  0.00000  1.0000
  In  In2       1.0  0.31556  0.31556  0.60322  1.0000
  In  In3       1.0  0.68444  0.68444  0.39678  1.0000
  Au  Au1       1.0  0.02542  0.02542  0.65633  1.0000
  Au  Au2       1.0  0.97458  0.97458  0.34367  1.0000
  Au  Au3       1.0  0.65267  0.65267  0.10230  1.0000
  Au  Au4       1.0  0.34733  0.34733  0.89770  1.0000
