data_image0
_chemical_formula_structural       Au10In6
_chemical_formula_sum              "Au10 In6"
_cell_length_a       7.92936
_cell_length_b       7.92936
_cell_length_c       7.92936
_cell_angle_alpha    123.696
_cell_angle_beta     123.696
_cell_angle_gamma    83.709

_space_group_name_H-M_alt    "P 1"
_space_group_IT_number       1

loop_
  _space_group_symop_operation_xyz
  'x, y, z'

loop_
  _atom_site_type_symbol
  _atom_site_label
  _atom_site_symmetry_multiplicity
  _atom_site_fract_x
  _atom_site_fract_y
  _atom_site_fract_z
  _atom_site_occupancy
  Au  Au1       1.0  0.47939  0.68450  0.50000  1.0000
  Au  Au2       1.0  0.52061  0.31550  0.50000  1.0000
  Au  Au3       1.0  0.50000  0.50000  0.00000  1.0000
  Au  Au4       1.0  0.00000  0.00000  0.00000  1.0000
  Au  Au5       1.0  0.18450  0.97939  0.50000  1.0000
  Au  Au6       1.0  0.97939  0.47939  0.79489  1.0000
  Au  Au7       1.0  0.68450  0.18450  0.20511  1.0000
  Au  Au8       1.0  0.31550  0.81550  0.79489  1.0000
  Au  Au9       1.0  0.02061  0.52061  0.20511  1.0000
  Au  Au10      1.0  0.81550  0.02061  0.50000  1.0000
  In  In1       1.0  0.84757  0.65243  0.50000  1.0000
  In  In2       1.0  0.65243  0.15243  0.80487  1.0000
  In  In3       1.0  0.34757  0.84757  0.19513  1.0000
  In  In4       1.0  0.15243  0.34757  0.50000  1.0000
  In  In5       1.0  0.25000  0.25000  0.00000  1.0000
  In  In6       1.0  0.75000  0.75000  0.00000  1.0000
