data_image0
_chemical_formula_structural       In10Au6
_chemical_formula_sum              "In10 Au6"
_cell_length_a       8.39582
_cell_length_b       8.39582
_cell_length_c       8.39582
_cell_angle_alpha    98.2046
_cell_angle_beta     98.2046
_cell_angle_gamma    135.609

_space_group_name_H-M_alt    "P 1"
_space_group_IT_number       1

loop_
  _space_group_symop_operation_xyz
  'x, y, z'

loop_
  _atom_site_type_symbol
  _atom_site_label
  _atom_site_symmetry_multiplicity
  _atom_site_fract_x
  _atom_site_fract_y
  _atom_site_fract_z
  _atom_site_occupancy
  In  In1       1.0  0.58126  0.28555  0.86682  1.0000
  In  In2       1.0  0.41874  0.71445  0.13318  1.0000
  In  In3       1.0  0.71445  0.58126  0.29571  1.0000
  In  In4       1.0  0.28555  0.41874  0.70429  1.0000
  In  In5       1.0  0.91874  0.78555  0.70429  1.0000
  In  In6       1.0  0.21445  0.91874  0.13318  1.0000
  In  In7       1.0  0.25000  0.75000  0.50000  1.0000
  In  In8       1.0  0.75000  0.25000  0.50000  1.0000
  In  In9       1.0  0.08126  0.21445  0.29571  1.0000
  In  In10      1.0  0.78555  0.08126  0.86682  1.0000
  Au  Au1       1.0  0.84336  0.34336  0.18672  1.0000
  Au  Au2       1.0  0.65664  0.84336  0.50000  1.0000
  Au  Au3       1.0  0.34336  0.15664  0.50000  1.0000
  Au  Au4       1.0  0.15664  0.65664  0.81328  1.0000
  Au  Au5       1.0  0.75000  0.75000  0.00000  1.0000
  Au  Au6       1.0  0.25000  0.25000  0.00000  1.0000
