data_image0
_chemical_formula_structural       Br6In2
_chemical_formula_sum              "Br6 In2"
_cell_length_a       4.30152
_cell_length_b       10.5585
_cell_length_c       5.68082
_cell_angle_alpha    90
_cell_angle_beta     90
_cell_angle_gamma    90

_space_group_name_H-M_alt    "P 1"
_space_group_IT_number       1

loop_
  _space_group_symop_operation_xyz
  'x, y, z'

loop_
  _atom_site_type_symbol
  _atom_site_label
  _atom_site_symmetry_multiplicity
  _atom_site_fract_x
  _atom_site_fract_y
  _atom_site_fract_z
  _atom_site_occupancy
  Br  Br1       1.0  0.00000  0.31988  0.24134  1.0000
  Br  Br2       1.0  0.00000  0.31988  0.75866  1.0000
  Br  Br3       1.0  0.50000  0.68012  0.25866  1.0000
  Br  Br4       1.0  0.50000  0.68012  0.74134  1.0000
  Br  Br5       1.0  0.00000  0.94308  0.50000  1.0000
  Br  Br6       1.0  0.50000  0.05692  0.00000  1.0000
  In  In1       1.0  0.00000  0.84408  0.00000  1.0000
  In  In2       1.0  0.50000  0.15592  0.50000  1.0000
