data_image0
_chemical_formula_structural       In4Au8
_chemical_formula_sum              "In4 Au8"
_cell_length_a       10.1411
_cell_length_b       10.1411
_cell_length_c       7.145
_cell_angle_alpha    90
_cell_angle_beta     90
_cell_angle_gamma    160.432

_space_group_name_H-M_alt    "P 1"
_space_group_IT_number       1

loop_
  _space_group_symop_operation_xyz
  'x, y, z'

loop_
  _atom_site_type_symbol
  _atom_site_label
  _atom_site_symmetry_multiplicity
  _atom_site_fract_x
  _atom_site_fract_y
  _atom_site_fract_z
  _atom_site_occupancy
  In  In1       1.0  0.54490  0.45510  0.79840  1.0000
  In  In2       1.0  0.45510  0.54490  0.29840  1.0000
  In  In3       1.0  0.21839  0.78161  0.28548  1.0000
  In  In4       1.0  0.78161  0.21839  0.78548  1.0000
  Au  Au1       1.0  0.94779  0.05221  0.96568  1.0000
  Au  Au2       1.0  0.05221  0.94779  0.46568  1.0000
  Au  Au3       1.0  0.16823  0.83177  0.90172  1.0000
  Au  Au4       1.0  0.83177  0.16823  0.40172  1.0000
  Au  Au5       1.0  0.33471  0.66529  0.06667  1.0000
  Au  Au6       1.0  0.66529  0.33471  0.56667  1.0000
  Au  Au7       1.0  0.60277  0.39723  0.16774  1.0000
  Au  Au8       1.0  0.39723  0.60277  0.66774  1.0000
