data_image0
_chemical_formula_structural       Br4In2
_chemical_formula_sum              "Br4 In2"
_cell_length_a       6.14567
_cell_length_b       6.14567
_cell_length_c       6.14567
_cell_angle_alpha    110.683
_cell_angle_beta     110.683
_cell_angle_gamma    107.074

_space_group_name_H-M_alt    "P 1"
_space_group_IT_number       1

loop_
  _space_group_symop_operation_xyz
  'x, y, z'

loop_
  _atom_site_type_symbol
  _atom_site_label
  _atom_site_symmetry_multiplicity
  _atom_site_fract_x
  _atom_site_fract_y
  _atom_site_fract_z
  _atom_site_occupancy
  Br  Br1       1.0  0.30064  0.80064  0.10127  1.0000
  Br  Br2       1.0  0.19936  0.30064  0.50000  1.0000
  Br  Br3       1.0  0.80064  0.69936  0.50000  1.0000
  Br  Br4       1.0  0.69936  0.19936  0.89873  1.0000
  In  In1       1.0  0.75000  0.75000  0.00000  1.0000
  In  In2       1.0  0.25000  0.25000  0.00000  1.0000
