data_image0
_chemical_formula_structural       Au6In2
_chemical_formula_sum              "Au6 In2"
_cell_length_a       4.78202
_cell_length_b       5.25847
_cell_length_c       6.07975
_cell_angle_alpha    90
_cell_angle_beta     90
_cell_angle_gamma    90

_space_group_name_H-M_alt    "P 1"
_space_group_IT_number       1

loop_
  _space_group_symop_operation_xyz
  'x, y, z'

loop_
  _atom_site_type_symbol
  _atom_site_label
  _atom_site_symmetry_multiplicity
  _atom_site_fract_x
  _atom_site_fract_y
  _atom_site_fract_z
  _atom_site_occupancy
  Au  Au1       1.0  0.00000  0.33504  0.25177  1.0000
  Au  Au2       1.0  0.00000  0.33504  0.74823  1.0000
  Au  Au3       1.0  0.50000  0.66496  0.24823  1.0000
  Au  Au4       1.0  0.50000  0.66496  0.75177  1.0000
  Au  Au5       1.0  0.00000  0.83431  0.50000  1.0000
  Au  Au6       1.0  0.50000  0.16569  0.00000  1.0000
  In  In1       1.0  0.00000  0.83314  0.00000  1.0000
  In  In2       1.0  0.50000  0.16686  0.50000  1.0000
