data_image0
_chemical_formula_structural       Br3In3
_chemical_formula_sum              "Br3 In3"
_cell_length_a       4.74236
_cell_length_b       4.74236
_cell_length_c       11.5671
_cell_angle_alpha    90
_cell_angle_beta     90
_cell_angle_gamma    120

_space_group_name_H-M_alt    "P 1"
_space_group_IT_number       1

loop_
  _space_group_symop_operation_xyz
  'x, y, z'

loop_
  _atom_site_type_symbol
  _atom_site_label
  _atom_site_symmetry_multiplicity
  _atom_site_fract_x
  _atom_site_fract_y
  _atom_site_fract_z
  _atom_site_occupancy
  Br  Br1       1.0  0.33040  0.33040  0.00000  1.0000
  Br  Br2       1.0  0.00000  0.66960  0.66667  1.0000
  Br  Br3       1.0  0.66960  0.00000  0.33333  1.0000
  In  In1       1.0  0.33532  0.33532  0.50000  1.0000
  In  In2       1.0  1.00000  0.66468  0.16667  1.0000
  In  In3       1.0  0.66468  1.00000  0.83333  1.0000
