data_image0
_chemical_formula_structural       In6Au10
_chemical_formula_sum              "In6 Au10"
_cell_length_a       3.8395
_cell_length_b       7.93173
_cell_length_c       11.2121
_cell_angle_alpha    90
_cell_angle_beta     90
_cell_angle_gamma    90

_space_group_name_H-M_alt    "P 1"
_space_group_IT_number       1

loop_
  _space_group_symop_operation_xyz
  'x, y, z'

loop_
  _atom_site_type_symbol
  _atom_site_label
  _atom_site_symmetry_multiplicity
  _atom_site_fract_x
  _atom_site_fract_y
  _atom_site_fract_z
  _atom_site_occupancy
  In  In1       1.0  0.50000  0.31362  0.84192  1.0000
  In  In2       1.0  0.50000  0.81362  0.65808  1.0000
  In  In3       1.0  0.00000  0.50000  0.50000  1.0000
  In  In4       1.0  0.00000  0.00000  0.00000  1.0000
  In  In5       1.0  0.50000  0.68638  0.15808  1.0000
  In  In6       1.0  0.50000  0.18638  0.34192  1.0000
  Au  Au1       1.0  0.50000  0.74230  0.41044  1.0000
  Au  Au2       1.0  0.50000  0.25770  0.58956  1.0000
  Au  Au3       1.0  0.00000  0.06420  0.75180  1.0000
  Au  Au4       1.0  0.50000  0.75770  0.91044  1.0000
  Au  Au5       1.0  0.00000  0.43580  0.25180  1.0000
  Au  Au6       1.0  0.00000  0.93580  0.24820  1.0000
  Au  Au7       1.0  0.00000  0.56420  0.74820  1.0000
  Au  Au8       1.0  0.00000  0.50000  0.00000  1.0000
  Au  Au9       1.0  0.00000  0.00000  0.50000  1.0000
  Au  Au10      1.0  0.50000  0.24230  0.08956  1.0000
