data_image0
_chemical_formula_structural       In2Au6
_chemical_formula_sum              "In2 Au6"
_cell_length_a       4.81234
_cell_length_b       5.2246
_cell_length_c       6.07964
_cell_angle_alpha    90
_cell_angle_beta     90
_cell_angle_gamma    90

_space_group_name_H-M_alt    "P 1"
_space_group_IT_number       1

loop_
  _space_group_symop_operation_xyz
  'x, y, z'

loop_
  _atom_site_type_symbol
  _atom_site_label
  _atom_site_symmetry_multiplicity
  _atom_site_fract_x
  _atom_site_fract_y
  _atom_site_fract_z
  _atom_site_occupancy
  In  In1       1.0  0.50000  0.66730  0.50000  1.0000
  In  In2       1.0  0.00000  0.33270  0.00000  1.0000
  Au  Au1       1.0  0.50000  0.16356  0.75166  1.0000
  Au  Au2       1.0  0.50000  0.16356  0.24834  1.0000
  Au  Au3       1.0  0.00000  0.83644  0.74834  1.0000
  Au  Au4       1.0  0.00000  0.83644  0.25166  1.0000
  Au  Au5       1.0  0.00000  0.33735  0.50000  1.0000
  Au  Au6       1.0  0.50000  0.66265  0.00000  1.0000
