data_image0
_chemical_formula_structural       In3Br6
_chemical_formula_sum              "In3 Br6"
_cell_length_a       9.46741
_cell_length_b       9.46741
_cell_length_c       4.16007
_cell_angle_alpha    90
_cell_angle_beta     90
_cell_angle_gamma    120

_space_group_name_H-M_alt    "P 1"
_space_group_IT_number       1

loop_
  _space_group_symop_operation_xyz
  'x, y, z'

loop_
  _atom_site_type_symbol
  _atom_site_label
  _atom_site_symmetry_multiplicity
  _atom_site_fract_x
  _atom_site_fract_y
  _atom_site_fract_z
  _atom_site_occupancy
  In  In1       1.0  0.00000  0.50000  0.16667  1.0000
  In  In2       1.0  0.50000  0.50000  0.83333  1.0000
  In  In3       1.0  0.50000  0.00000  0.50000  1.0000
  Br  Br1       1.0  0.79147  0.58294  0.50000  1.0000
  Br  Br2       1.0  0.20853  0.79147  0.83333  1.0000
  Br  Br3       1.0  0.58294  0.79147  0.16667  1.0000
  Br  Br4       1.0  0.20853  0.41706  0.50000  1.0000
  Br  Br5       1.0  0.79147  0.20853  0.83333  1.0000
  Br  Br6       1.0  0.41706  0.20853  0.16667  1.0000
