data_image0
_chemical_formula_structural       Au8In4
_chemical_formula_sum              "Au8 In4"
_cell_length_a       9.50986
_cell_length_b       3.75988
_cell_length_c       7.26507
_cell_angle_alpha    72.4708
_cell_angle_beta     90
_cell_angle_gamma    90

_space_group_name_H-M_alt    "P 1"
_space_group_IT_number       1

loop_
  _space_group_symop_operation_xyz
  'x, y, z'

loop_
  _atom_site_type_symbol
  _atom_site_label
  _atom_site_symmetry_multiplicity
  _atom_site_fract_x
  _atom_site_fract_y
  _atom_site_fract_z
  _atom_site_occupancy
  Au  Au1       1.0  0.36822  0.45403  0.39292  1.0000
  Au  Au2       1.0  0.63178  0.45403  0.89292  1.0000
  Au  Au3       1.0  0.36573  0.78096  0.72601  1.0000
  Au  Au4       1.0  0.86621  0.24506  0.30139  1.0000
  Au  Au5       1.0  0.63427  0.78096  0.22601  1.0000
  Au  Au6       1.0  0.13379  0.24506  0.80139  1.0000
  Au  Au7       1.0  0.86831  0.57316  0.63466  1.0000
  Au  Au8       1.0  0.13169  0.57316  0.13466  1.0000
  In  In1       1.0  0.37577  0.11460  0.06300  1.0000
  In  In2       1.0  0.62423  0.11460  0.56300  1.0000
  In  In3       1.0  0.87527  0.91549  0.96531  1.0000
  In  In4       1.0  0.12473  0.91549  0.46531  1.0000
