data_image0
_chemical_formula_structural       In6Au20
_chemical_formula_sum              "In6 Au20"
_cell_length_a       10.8368
_cell_length_b       10.8368
_cell_length_c       4.85512
_cell_angle_alpha    90
_cell_angle_beta     90
_cell_angle_gamma    120

_space_group_name_H-M_alt    "P 1"
_space_group_IT_number       1

loop_
  _space_group_symop_operation_xyz
  'x, y, z'

loop_
  _atom_site_type_symbol
  _atom_site_label
  _atom_site_symmetry_multiplicity
  _atom_site_fract_x
  _atom_site_fract_y
  _atom_site_fract_z
  _atom_site_occupancy
  In  In1       1.0  0.63654  0.74231  0.25000  1.0000
  In  In2       1.0  0.25769  0.89423  0.25000  1.0000
  In  In3       1.0  0.10577  0.36346  0.25000  1.0000
  In  In4       1.0  0.36346  0.25769  0.75000  1.0000
  In  In5       1.0  0.74231  0.10577  0.75000  1.0000
  In  In6       1.0  0.89423  0.63654  0.75000  1.0000
  Au  Au1       1.0  0.87648  0.05570  0.25000  1.0000
  Au  Au2       1.0  0.94430  0.82078  0.25000  1.0000
  Au  Au3       1.0  0.17922  0.12352  0.25000  1.0000
  Au  Au4       1.0  0.12352  0.94430  0.75000  1.0000
  Au  Au5       1.0  0.05570  0.17922  0.75000  1.0000
  Au  Au6       1.0  0.82078  0.87648  0.75000  1.0000
  Au  Au7       1.0  0.56675  0.97724  0.25000  1.0000
  Au  Au8       1.0  0.02276  0.58951  0.25000  1.0000
  Au  Au9       1.0  0.41049  0.43325  0.25000  1.0000
  Au  Au10      1.0  0.43325  0.02276  0.75000  1.0000
  Au  Au11      1.0  0.97724  0.41049  0.75000  1.0000
  Au  Au12      1.0  0.58951  0.56675  0.75000  1.0000
  Au  Au13      1.0  0.79411  0.28132  0.25000  1.0000
  Au  Au14      1.0  0.71868  0.51279  0.25000  1.0000
  Au  Au15      1.0  0.48721  0.20589  0.25000  1.0000
  Au  Au16      1.0  0.20589  0.71868  0.75000  1.0000
  Au  Au17      1.0  0.28132  0.48721  0.75000  1.0000
  Au  Au18      1.0  0.51279  0.79411  0.75000  1.0000
  Au  Au19      1.0  0.66667  0.33333  0.75000  1.0000
  Au  Au20      1.0  0.33333  0.66667  0.25000  1.0000
