data_image0
_chemical_formula_structural       I6In2
_chemical_formula_sum              "I6 In2"
_cell_length_a       4.52666
_cell_length_b       11.7791
_cell_length_c       6.25385
_cell_angle_alpha    90
_cell_angle_beta     90
_cell_angle_gamma    90

_space_group_name_H-M_alt    "P 1"
_space_group_IT_number       1

loop_
  _space_group_symop_operation_xyz
  'x, y, z'

loop_
  _atom_site_type_symbol
  _atom_site_label
  _atom_site_symmetry_multiplicity
  _atom_site_fract_x
  _atom_site_fract_y
  _atom_site_fract_z
  _atom_site_occupancy
  I   I1        1.0  0.00000  0.32251  0.24435  1.0000
  I   I2        1.0  0.00000  0.32251  0.75565  1.0000
  I   I3        1.0  0.50000  0.67749  0.25565  1.0000
  I   I4        1.0  0.50000  0.67749  0.74435  1.0000
  I   I5        1.0  0.00000  0.94865  0.50000  1.0000
  I   I6        1.0  0.50000  0.05135  0.00000  1.0000
  In  In1       1.0  0.00000  0.85425  0.00000  1.0000
  In  In2       1.0  0.50000  0.14575  0.50000  1.0000
