data_image0
_chemical_formula_structural       Hg4In2
_chemical_formula_sum              "Hg4 In2"
_cell_length_a       6.06691
_cell_length_b       6.06691
_cell_length_c       6.06691
_cell_angle_alpha    108.558
_cell_angle_beta     108.558
_cell_angle_gamma    111.314

_space_group_name_H-M_alt    "P 1"
_space_group_IT_number       1

loop_
  _space_group_symop_operation_xyz
  'x, y, z'

loop_
  _atom_site_type_symbol
  _atom_site_label
  _atom_site_symmetry_multiplicity
  _atom_site_fract_x
  _atom_site_fract_y
  _atom_site_fract_z
  _atom_site_occupancy
  Hg  Hg1       1.0  0.34749  0.84749  0.19498  1.0000
  Hg  Hg2       1.0  0.15251  0.34749  0.50000  1.0000
  Hg  Hg3       1.0  0.84749  0.65251  0.50000  1.0000
  Hg  Hg4       1.0  0.65251  0.15251  0.80502  1.0000
  In  In1       1.0  0.75000  0.75000  0.00000  1.0000
  In  In2       1.0  0.25000  0.25000  0.00000  1.0000
