data_image0
_chemical_formula_structural       InHg4
_chemical_formula_sum              "In1 Hg4"
_cell_length_a       5.90337
_cell_length_b       5.90337
_cell_length_c       5.90337
_cell_angle_alpha    99.2331
_cell_angle_beta     99.2331
_cell_angle_gamma    132.773

_space_group_name_H-M_alt    "P 1"
_space_group_IT_number       1

loop_
  _space_group_symop_operation_xyz
  'x, y, z'

loop_
  _atom_site_type_symbol
  _atom_site_label
  _atom_site_symmetry_multiplicity
  _atom_site_fract_x
  _atom_site_fract_y
  _atom_site_fract_z
  _atom_site_occupancy
  In  In1       1.0  0.00000  0.00000  0.00000  1.0000
  Hg  Hg1       1.0  0.60063  0.80170  0.40233  1.0000
  Hg  Hg2       1.0  0.39937  0.19830  0.59767  1.0000
  Hg  Hg3       1.0  0.19830  0.60063  0.79893  1.0000
  Hg  Hg4       1.0  0.80170  0.39937  0.20107  1.0000
