data_image0
_chemical_formula_structural       Hg2In6
_chemical_formula_sum              "Hg2 In6"
_cell_length_a       10.4462
_cell_length_b       10.4462
_cell_length_c       10.4462
_cell_angle_alpha    154.251
_cell_angle_beta     154.251
_cell_angle_gamma    36.7342

_space_group_name_H-M_alt    "P 1"
_space_group_IT_number       1

loop_
  _space_group_symop_operation_xyz
  'x, y, z'

loop_
  _atom_site_type_symbol
  _atom_site_label
  _atom_site_symmetry_multiplicity
  _atom_site_fract_x
  _atom_site_fract_y
  _atom_site_fract_z
  _atom_site_occupancy
  Hg  Hg1       1.0  0.87539  0.87539  0.00000  1.0000
  Hg  Hg2       1.0  0.12461  0.12461  0.00000  1.0000
  In  In1       1.0  0.00000  0.50000  0.50000  1.0000
  In  In2       1.0  0.50000  0.00000  0.50000  1.0000
  In  In3       1.0  0.75000  0.25000  0.50000  1.0000
  In  In4       1.0  0.25000  0.75000  0.50000  1.0000
  In  In5       1.0  0.62533  0.62533  0.00000  1.0000
  In  In6       1.0  0.37467  0.37467  0.00000  1.0000
