data_image0
_chemical_formula_structural       In2F6
_chemical_formula_sum              "In2 F6"
_cell_length_a       3.16532
_cell_length_b       6.03459
_cell_length_c       5.25017
_cell_angle_alpha    90
_cell_angle_beta     90
_cell_angle_gamma    90

_space_group_name_H-M_alt    "P 1"
_space_group_IT_number       1

loop_
  _space_group_symop_operation_xyz
  'x, y, z'

loop_
  _atom_site_type_symbol
  _atom_site_label
  _atom_site_symmetry_multiplicity
  _atom_site_fract_x
  _atom_site_fract_y
  _atom_site_fract_z
  _atom_site_occupancy
  In  In1       1.0  0.50000  0.26748  0.50000  1.0000
  In  In2       1.0  0.00000  0.73252  0.00000  1.0000
  F   F1        1.0  0.00000  0.52362  0.50000  1.0000
  F   F2        1.0  0.50000  0.47638  0.00000  1.0000
  F   F3        1.0  0.00000  0.16496  0.74608  1.0000
  F   F4        1.0  0.50000  0.83504  0.75392  1.0000
  F   F5        1.0  0.00000  0.16496  0.25392  1.0000
  F   F6        1.0  0.50000  0.83504  0.24608  1.0000
