data_image0
_chemical_formula_structural       InN2
_chemical_formula_sum              "In1 N2"
_cell_length_a       3.63221
_cell_length_b       3.63221
_cell_length_c       3.99276
_cell_angle_alpha    59.9171
_cell_angle_beta     59.9171
_cell_angle_gamma    57.9861

_space_group_name_H-M_alt    "P 1"
_space_group_IT_number       1

loop_
  _space_group_symop_operation_xyz
  'x, y, z'

loop_
  _atom_site_type_symbol
  _atom_site_label
  _atom_site_symmetry_multiplicity
  _atom_site_fract_x
  _atom_site_fract_y
  _atom_site_fract_z
  _atom_site_occupancy
  In  In1       1.0  0.62136  0.37864  0.50000  1.0000
  N   N1        1.0  0.28410  0.90546  0.80482  1.0000
  N   N2        1.0  0.09454  0.71590  0.19518  1.0000
