data_image0
_chemical_formula_structural       InI4
_chemical_formula_sum              "In1 I4"
_cell_length_a       6.92939
_cell_length_b       6.92939
_cell_length_c       6.92939
_cell_angle_alpha    94.8345
_cell_angle_beta     94.8345
_cell_angle_gamma    146.247

_space_group_name_H-M_alt    "P 1"
_space_group_IT_number       1

loop_
  _space_group_symop_operation_xyz
  'x, y, z'

loop_
  _atom_site_type_symbol
  _atom_site_label
  _atom_site_symmetry_multiplicity
  _atom_site_fract_x
  _atom_site_fract_y
  _atom_site_fract_z
  _atom_site_occupancy
  In  In1       1.0  0.00000  0.00000  0.00000  1.0000
  I   I1        1.0  0.57460  0.76422  0.33883  1.0000
  I   I2        1.0  0.42540  0.23578  0.66117  1.0000
  I   I3        1.0  0.23578  0.57460  0.81038  1.0000
  I   I4        1.0  0.76422  0.42540  0.18962  1.0000
