data_image0
_chemical_formula_structural       In2Br6
_chemical_formula_sum              "In2 Br6"
_cell_length_a       8.30973
_cell_length_b       8.30973
_cell_length_c       8.30973
_cell_angle_alpha    138.671
_cell_angle_beta     138.671
_cell_angle_gamma    59.8775

_space_group_name_H-M_alt    "P 1"
_space_group_IT_number       1

loop_
  _space_group_symop_operation_xyz
  'x, y, z'

loop_
  _atom_site_type_symbol
  _atom_site_label
  _atom_site_symmetry_multiplicity
  _atom_site_fract_x
  _atom_site_fract_y
  _atom_site_fract_z
  _atom_site_occupancy
  In  In1       1.0  0.80884  0.80884  1.00000  1.0000
  In  In2       1.0  0.19116  0.19116  0.00000  1.0000
  Br  Br1       1.0  1.00000  0.50000  0.50000  1.0000
  Br  Br2       1.0  0.50000  0.00000  0.50000  1.0000
  Br  Br3       1.0  0.75000  0.25000  0.50000  1.0000
  Br  Br4       1.0  0.25000  0.75000  0.50000  1.0000
  Br  Br5       1.0  0.61252  0.61252  0.00000  1.0000
  Br  Br6       1.0  0.38748  0.38748  0.00000  1.0000
