data_image0
_chemical_formula_structural       InI2
_chemical_formula_sum              "In1 I2"
_cell_length_a       7.73751
_cell_length_b       7.73751
_cell_length_c       7.73751
_cell_angle_alpha    150.513
_cell_angle_beta     150.557
_cell_angle_gamma    42.1568

_space_group_name_H-M_alt    "P 1"
_space_group_IT_number       1

loop_
  _space_group_symop_operation_xyz
  'x, y, z'

loop_
  _atom_site_type_symbol
  _atom_site_label
  _atom_site_symmetry_multiplicity
  _atom_site_fract_x
  _atom_site_fract_y
  _atom_site_fract_z
  _atom_site_occupancy
  In  In1       1.0  0.00000  0.00000  0.00000  1.0000
  I   I1        1.0  0.63145  0.63145  0.00000  1.0000
  I   I2        1.0  0.36855  0.36855  0.00000  1.0000
