data_image0
_chemical_formula_structural       In2Hg6
_chemical_formula_sum              "In2 Hg6"
_cell_length_a       6.8326
_cell_length_b       6.8326
_cell_length_c       5.39886
_cell_angle_alpha    90
_cell_angle_beta     90
_cell_angle_gamma    120

_space_group_name_H-M_alt    "P 1"
_space_group_IT_number       1

loop_
  _space_group_symop_operation_xyz
  'x, y, z'

loop_
  _atom_site_type_symbol
  _atom_site_label
  _atom_site_symmetry_multiplicity
  _atom_site_fract_x
  _atom_site_fract_y
  _atom_site_fract_z
  _atom_site_occupancy
  In  In1       1.0  0.33333  0.66667  0.75000  1.0000
  In  In2       1.0  0.66667  0.33333  0.25000  1.0000
  Hg  Hg1       1.0  0.16635  0.33271  0.25000  1.0000
  Hg  Hg2       1.0  0.66729  0.83365  0.25000  1.0000
  Hg  Hg3       1.0  0.16635  0.83365  0.25000  1.0000
  Hg  Hg4       1.0  0.83365  0.66729  0.75000  1.0000
  Hg  Hg5       1.0  0.33271  0.16635  0.75000  1.0000
  Hg  Hg6       1.0  0.83365  0.16635  0.75000  1.0000
