data_image0
_chemical_formula_structural       In2F4
_chemical_formula_sum              "In2 F4"
_cell_length_a       3.65167
_cell_length_b       5.28909
_cell_length_c       5.44316
_cell_angle_alpha    90
_cell_angle_beta     90
_cell_angle_gamma    90

_space_group_name_H-M_alt    "P 1"
_space_group_IT_number       1

loop_
  _space_group_symop_operation_xyz
  'x, y, z'

loop_
  _atom_site_type_symbol
  _atom_site_label
  _atom_site_symmetry_multiplicity
  _atom_site_fract_x
  _atom_site_fract_y
  _atom_site_fract_z
  _atom_site_occupancy
  In  In1       1.0  0.50000  0.50000  0.50000  1.0000
  In  In2       1.0  0.00000  0.00000  0.00000  1.0000
  F   F1        1.0  0.50000  0.20262  0.81628  1.0000
  F   F2        1.0  0.50000  0.79738  0.18372  1.0000
  F   F3        1.0  0.00000  0.29738  0.31628  1.0000
  F   F4        1.0  0.00000  0.70262  0.68372  1.0000
