data_image0
_chemical_formula_structural       Cl4In2
_chemical_formula_sum              "Cl4 In2"
_cell_length_a       5.80943
_cell_length_b       5.80943
_cell_length_c       5.80943
_cell_angle_alpha    111.041
_cell_angle_beta     111.041
_cell_angle_gamma    106.375

_space_group_name_H-M_alt    "P 1"
_space_group_IT_number       1

loop_
  _space_group_symop_operation_xyz
  'x, y, z'

loop_
  _atom_site_type_symbol
  _atom_site_label
  _atom_site_symmetry_multiplicity
  _atom_site_fract_x
  _atom_site_fract_y
  _atom_site_fract_z
  _atom_site_occupancy
  Cl  Cl1       1.0  0.79554  0.29554  0.09107  1.0000
  Cl  Cl2       1.0  0.29554  0.20446  0.50000  1.0000
  Cl  Cl3       1.0  0.20446  0.70446  0.90893  1.0000
  Cl  Cl4       1.0  0.70446  0.79554  0.50000  1.0000
  In  In1       1.0  0.25000  0.25000  0.00000  1.0000
  In  In2       1.0  0.75000  0.75000  0.00000  1.0000
