data_image0
_chemical_formula_structural       In2Cl4
_chemical_formula_sum              "In2 Cl4"
_cell_length_a       4.06949
_cell_length_b       6.60298
_cell_length_c       6.62774
_cell_angle_alpha    90
_cell_angle_beta     90
_cell_angle_gamma    90

_space_group_name_H-M_alt    "P 1"
_space_group_IT_number       1

loop_
  _space_group_symop_operation_xyz
  'x, y, z'

loop_
  _atom_site_type_symbol
  _atom_site_label
  _atom_site_symmetry_multiplicity
  _atom_site_fract_x
  _atom_site_fract_y
  _atom_site_fract_z
  _atom_site_occupancy
  In  In1       1.0  0.50000  0.50000  0.50000  1.0000
  In  In2       1.0  0.00000  0.00000  0.00000  1.0000
  Cl  Cl1       1.0  0.50000  0.21529  0.80073  1.0000
  Cl  Cl2       1.0  0.50000  0.78471  0.19927  1.0000
  Cl  Cl3       1.0  0.00000  0.28471  0.30073  1.0000
  Cl  Cl4       1.0  0.00000  0.71529  0.69927  1.0000
