data_image0
_chemical_formula_structural       In4N4
_chemical_formula_sum              "In4 N4"
_cell_length_a       4.78088
_cell_length_b       4.78088
_cell_length_c       4.78088
_cell_angle_alpha    90
_cell_angle_beta     90
_cell_angle_gamma    90

_space_group_name_H-M_alt    "P 1"
_space_group_IT_number       1

loop_
  _space_group_symop_operation_xyz
  'x, y, z'

loop_
  _atom_site_type_symbol
  _atom_site_label
  _atom_site_symmetry_multiplicity
  _atom_site_fract_x
  _atom_site_fract_y
  _atom_site_fract_z
  _atom_site_occupancy
  In  In1       1.0  0.75004  0.74996  0.25004  1.0000
  In  In2       1.0  0.74996  0.25004  0.75004  1.0000
  In  In3       1.0  0.25004  0.75004  0.74996  1.0000
  In  In4       1.0  0.24996  0.24996  0.24996  1.0000
  N   N1        1.0  0.24978  0.25022  0.74978  1.0000
  N   N2        1.0  0.25022  0.74978  0.24978  1.0000
  N   N3        1.0  0.74978  0.24978  0.25022  1.0000
  N   N4        1.0  0.75022  0.75022  0.75022  1.0000
