data_image0
_chemical_formula_structural       InCl4
_chemical_formula_sum              "In1 Cl4"
_cell_length_a       6.88406
_cell_length_b       6.88406
_cell_length_c       6.88406
_cell_angle_alpha    93.5448
_cell_angle_beta     93.5448
_cell_angle_gamma    151.204

_space_group_name_H-M_alt    "P 1"
_space_group_IT_number       1

loop_
  _space_group_symop_operation_xyz
  'x, y, z'

loop_
  _atom_site_type_symbol
  _atom_site_label
  _atom_site_symmetry_multiplicity
  _atom_site_fract_x
  _atom_site_fract_y
  _atom_site_fract_z
  _atom_site_occupancy
  In  In1       1.0  0.00000  0.00000  0.00000  1.0000
  Cl  Cl1       1.0  0.55963  0.71705  0.27668  1.0000
  Cl  Cl2       1.0  0.44037  0.28295  0.72332  1.0000
  Cl  Cl3       1.0  0.28295  0.55963  0.84258  1.0000
  Cl  Cl4       1.0  0.71705  0.44037  0.15742  1.0000
