data_image0
_chemical_formula_structural       I10In6
_chemical_formula_sum              "I10 In6"
_cell_length_a       9.85394
_cell_length_b       9.85394
_cell_length_c       9.85394
_cell_angle_alpha    127.319
_cell_angle_beta     127.319
_cell_angle_gamma    77.7308

_space_group_name_H-M_alt    "P 1"
_space_group_IT_number       1

loop_
  _space_group_symop_operation_xyz
  'x, y, z'

loop_
  _atom_site_type_symbol
  _atom_site_label
  _atom_site_symmetry_multiplicity
  _atom_site_fract_x
  _atom_site_fract_y
  _atom_site_fract_z
  _atom_site_occupancy
  I   I1        1.0  0.51066  0.70911  0.50000  1.0000
  I   I2        1.0  0.48934  0.29089  0.50000  1.0000
  I   I3        1.0  0.50000  0.50000  0.00000  1.0000
  I   I4        1.0  0.00000  0.00000  0.00000  1.0000
  I   I5        1.0  0.20911  0.01066  0.50000  1.0000
  I   I6        1.0  0.01066  0.51066  0.80155  1.0000
  I   I7        1.0  0.70911  0.20911  0.19845  1.0000
  I   I8        1.0  0.29089  0.79089  0.80155  1.0000
  I   I9        1.0  0.98934  0.48934  0.19845  1.0000
  I   I10       1.0  0.79089  0.98934  0.50000  1.0000
  In  In1       1.0  0.82819  0.67181  0.50000  1.0000
  In  In2       1.0  0.67181  0.17181  0.84361  1.0000
  In  In3       1.0  0.32819  0.82819  0.15639  1.0000
  In  In4       1.0  0.17181  0.32819  0.50000  1.0000
  In  In5       1.0  0.25000  0.25000  0.00000  1.0000
  In  In6       1.0  0.75000  0.75000  0.00000  1.0000
