data_image0
_chemical_formula_structural       In6Cl4
_chemical_formula_sum              "In6 Cl4"
_cell_length_a       12.0112
_cell_length_b       12.0112
_cell_length_c       4.33965
_cell_angle_alpha    90
_cell_angle_beta     90
_cell_angle_gamma    90

_space_group_name_H-M_alt    "P 1"
_space_group_IT_number       1

loop_
  _space_group_symop_operation_xyz
  'x, y, z'

loop_
  _atom_site_type_symbol
  _atom_site_label
  _atom_site_symmetry_multiplicity
  _atom_site_fract_x
  _atom_site_fract_y
  _atom_site_fract_z
  _atom_site_occupancy
  In  In1       1.0  0.00000  0.00000  0.00000  1.0000
  In  In2       1.0  0.50000  0.50000  0.00000  1.0000
  In  In3       1.0  0.14983  0.64983  0.71676  1.0000
  In  In4       1.0  0.35017  0.14983  0.28324  1.0000
  In  In5       1.0  0.64983  0.85017  0.28324  1.0000
  In  In6       1.0  0.85017  0.35017  0.71676  1.0000
  Cl  Cl1       1.0  0.26907  0.76907  0.25814  1.0000
  Cl  Cl2       1.0  0.23093  0.26907  0.74186  1.0000
  Cl  Cl3       1.0  0.76907  0.73093  0.74186  1.0000
  Cl  Cl4       1.0  0.73093  0.23093  0.25814  1.0000
