data_image0
_chemical_formula_structural       In2N6
_chemical_formula_sum              "In2 N6"
_cell_length_a       5.71139
_cell_length_b       3.97918
_cell_length_c       6.01099
_cell_angle_alpha    90
_cell_angle_beta     90
_cell_angle_gamma    90

_space_group_name_H-M_alt    "P 1"
_space_group_IT_number       1

loop_
  _space_group_symop_operation_xyz
  'x, y, z'

loop_
  _atom_site_type_symbol
  _atom_site_label
  _atom_site_symmetry_multiplicity
  _atom_site_fract_x
  _atom_site_fract_y
  _atom_site_fract_z
  _atom_site_occupancy
  In  In1       1.0  0.50000  0.71690  0.50000  1.0000
  In  In2       1.0  0.00000  0.28310  0.00000  1.0000
  N   N1        1.0  0.50000  0.14974  0.88534  1.0000
  N   N2        1.0  0.50000  0.14974  0.11466  1.0000
  N   N3        1.0  0.00000  0.85026  0.61466  1.0000
  N   N4        1.0  0.00000  0.85026  0.38534  1.0000
  N   N5        1.0  0.00000  0.53548  0.50000  1.0000
  N   N6        1.0  0.50000  0.46452  0.00000  1.0000
