data_image0
_chemical_formula_structural       InN2
_chemical_formula_sum              "In1 N2"
_cell_length_a       5.86667
_cell_length_b       5.86667
_cell_length_c       5.86667
_cell_angle_alpha    138.805
_cell_angle_beta     111.789
_cell_angle_gamma    82.8961

_space_group_name_H-M_alt    "P 1"
_space_group_IT_number       1

loop_
  _space_group_symop_operation_xyz
  'x, y, z'

loop_
  _atom_site_type_symbol
  _atom_site_label
  _atom_site_symmetry_multiplicity
  _atom_site_fract_x
  _atom_site_fract_y
  _atom_site_fract_z
  _atom_site_occupancy
  In  In1       1.0  0.00000  0.00000  0.00000  1.0000
  N   N1        1.0  0.56525  0.56525  0.00000  1.0000
  N   N2        1.0  0.43475  0.43475  0.00000  1.0000
