data_image0
_chemical_formula_structural       In4I12
_chemical_formula_sum              "In4 I12"
_cell_length_a       14.7431
_cell_length_b       14.7431
_cell_length_c       5.96248
_cell_angle_alpha    90
_cell_angle_beta     90
_cell_angle_gamma    146.203

_space_group_name_H-M_alt    "P 1"
_space_group_IT_number       1

loop_
  _space_group_symop_operation_xyz
  'x, y, z'

loop_
  _atom_site_type_symbol
  _atom_site_label
  _atom_site_symmetry_multiplicity
  _atom_site_fract_x
  _atom_site_fract_y
  _atom_site_fract_z
  _atom_site_occupancy
  In  In1       1.0  0.65003  0.34997  0.00000  1.0000
  In  In2       1.0  0.34997  0.65003  0.00000  1.0000
  In  In3       1.0  0.15003  0.84997  0.50000  1.0000
  In  In4       1.0  0.84997  0.15003  0.50000  1.0000
  I   I1        1.0  0.71248  0.71248  0.14597  1.0000
  I   I2        1.0  0.21248  0.21248  0.35403  1.0000
  I   I3        1.0  0.78752  0.78752  0.64597  1.0000
  I   I4        1.0  0.37507  0.62493  0.50000  1.0000
  I   I5        1.0  0.00092  0.50092  0.75000  1.0000
  I   I6        1.0  0.87507  0.12493  0.00000  1.0000
  I   I7        1.0  0.99908  0.49908  0.25000  1.0000
  I   I8        1.0  0.28752  0.28752  0.85403  1.0000
  I   I9        1.0  0.62493  0.37507  0.50000  1.0000
  I   I10       1.0  0.12493  0.87507  0.00000  1.0000
  I   I11       1.0  0.49908  0.99908  0.25000  1.0000
  I   I12       1.0  0.50092  0.00092  0.75000  1.0000
