data_image0
_chemical_formula_structural       In6I16
_chemical_formula_sum              "In6 I16"
_cell_length_a       7.55571
_cell_length_b       7.73065
_cell_length_c       16.3454
_cell_angle_alpha    69.3384
_cell_angle_beta     90
_cell_angle_gamma    90

_space_group_name_H-M_alt    "P 1"
_space_group_IT_number       1

loop_
  _space_group_symop_operation_xyz
  'x, y, z'

loop_
  _atom_site_type_symbol
  _atom_site_label
  _atom_site_symmetry_multiplicity
  _atom_site_fract_x
  _atom_site_fract_y
  _atom_site_fract_z
  _atom_site_occupancy
  In  In1       1.0  0.48816  0.77605  0.74700  1.0000
  In  In2       1.0  0.51184  0.22395  0.25300  1.0000
  In  In3       1.0  0.50000  0.00000  0.00000  1.0000
  In  In4       1.0  0.98816  0.22395  0.75300  1.0000
  In  In5       1.0  0.01184  0.77605  0.24700  1.0000
  In  In6       1.0  0.00000  0.00000  0.50000  1.0000
  I   I1        1.0  0.67570  0.64407  0.17361  1.0000
  I   I2        1.0  0.64445  0.14773  0.67634  1.0000
  I   I3        1.0  0.63856  0.71228  0.91576  1.0000
  I   I4        1.0  0.65868  0.21791  0.41759  1.0000
  I   I5        1.0  0.84132  0.21791  0.91759  1.0000
  I   I6        1.0  0.85555  0.14773  0.17634  1.0000
  I   I7        1.0  0.86144  0.71228  0.41576  1.0000
  I   I8        1.0  0.82430  0.64407  0.67361  1.0000
  I   I9        1.0  0.14445  0.85227  0.82366  1.0000
  I   I10       1.0  0.15868  0.78209  0.08241  1.0000
  I   I11       1.0  0.13856  0.28772  0.58424  1.0000
  I   I12       1.0  0.17570  0.35593  0.32639  1.0000
  I   I13       1.0  0.36144  0.28772  0.08424  1.0000
  I   I14       1.0  0.32430  0.35593  0.82639  1.0000
  I   I15       1.0  0.35555  0.85227  0.32366  1.0000
  I   I16       1.0  0.34132  0.78209  0.58241  1.0000
