data_image0
_chemical_formula_structural       Cl10In6
_chemical_formula_sum              "Cl10 In6"
_cell_length_a       8.98684
_cell_length_b       8.98684
_cell_length_c       8.98684
_cell_angle_alpha    128.702
_cell_angle_beta     128.702
_cell_angle_gamma    75.4902

_space_group_name_H-M_alt    "P 1"
_space_group_IT_number       1

loop_
  _space_group_symop_operation_xyz
  'x, y, z'

loop_
  _atom_site_type_symbol
  _atom_site_label
  _atom_site_symmetry_multiplicity
  _atom_site_fract_x
  _atom_site_fract_y
  _atom_site_fract_z
  _atom_site_occupancy
  Cl  Cl1       1.0  0.52145  0.71521  0.50000  1.0000
  Cl  Cl2       1.0  0.47855  0.28479  0.50000  1.0000
  Cl  Cl3       1.0  0.50000  0.50000  0.00000  1.0000
  Cl  Cl4       1.0  0.00000  0.00000  0.00000  1.0000
  Cl  Cl5       1.0  0.21521  0.02145  0.50000  1.0000
  Cl  Cl6       1.0  0.02145  0.52145  0.80624  1.0000
  Cl  Cl7       1.0  0.71521  0.21521  0.19376  1.0000
  Cl  Cl8       1.0  0.28479  0.78479  0.80624  1.0000
  Cl  Cl9       1.0  0.97855  0.47855  0.19376  1.0000
  Cl  Cl10      1.0  0.78479  0.97855  0.50000  1.0000
  In  In1       1.0  0.82747  0.67253  0.50000  1.0000
  In  In2       1.0  0.67253  0.17253  0.84507  1.0000
  In  In3       1.0  0.32747  0.82747  0.15493  1.0000
  In  In4       1.0  0.17253  0.32747  0.50000  1.0000
  In  In5       1.0  0.25000  0.25000  0.00000  1.0000
  In  In6       1.0  0.75000  0.75000  0.00000  1.0000
