data_image0
_chemical_formula_structural       S10Ir6
_chemical_formula_sum              "S10 Ir6"
_cell_length_a       7.30002
_cell_length_b       7.30002
_cell_length_c       7.30002
_cell_angle_alpha    125.284
_cell_angle_beta     125.284
_cell_angle_gamma    81.068

_space_group_name_H-M_alt    "P 1"
_space_group_IT_number       1

loop_
  _space_group_symop_operation_xyz
  'x, y, z'

loop_
  _atom_site_type_symbol
  _atom_site_label
  _atom_site_symmetry_multiplicity
  _atom_site_fract_x
  _atom_site_fract_y
  _atom_site_fract_z
  _atom_site_occupancy
  S   S1        1.0  0.52479  0.69102  0.50000  1.0000
  S   S2        1.0  0.47521  0.30898  0.50000  1.0000
  S   S3        1.0  0.50000  0.50000  0.00000  1.0000
  S   S4        1.0  0.00000  0.00000  0.00000  1.0000
  S   S5        1.0  0.19102  0.02479  0.50000  1.0000
  S   S6        1.0  0.02479  0.52479  0.83377  1.0000
  S   S7        1.0  0.69102  0.19102  0.16623  1.0000
  S   S8        1.0  0.30898  0.80898  0.83377  1.0000
  S   S9        1.0  0.97521  0.47521  0.16623  1.0000
  S   S10       1.0  0.80898  0.97521  0.50000  1.0000
  Ir  Ir1       1.0  0.85313  0.64687  0.50000  1.0000
  Ir  Ir2       1.0  0.64687  0.14687  0.79373  1.0000
  Ir  Ir3       1.0  0.35313  0.85313  0.20627  1.0000
  Ir  Ir4       1.0  0.14687  0.35313  0.50000  1.0000
  Ir  Ir5       1.0  0.25000  0.25000  0.00000  1.0000
  Ir  Ir6       1.0  0.75000  0.75000  0.00000  1.0000
