data_image0
_chemical_formula_structural       In2Se4
_chemical_formula_sum              "In2 Se4"
_cell_length_a       6.91355
_cell_length_b       6.91355
_cell_length_c       3.93428
_cell_angle_alpha    90
_cell_angle_beta     90
_cell_angle_gamma    113.97

_space_group_name_H-M_alt    "P 1"
_space_group_IT_number       1

loop_
  _space_group_symop_operation_xyz
  'x, y, z'

loop_
  _atom_site_type_symbol
  _atom_site_label
  _atom_site_symmetry_multiplicity
  _atom_site_fract_x
  _atom_site_fract_y
  _atom_site_fract_z
  _atom_site_occupancy
  In  In1       1.0  0.27130  0.27130  0.75000  1.0000
  In  In2       1.0  0.72870  0.72870  0.25000  1.0000
  Se  Se1       1.0  0.59257  0.90349  0.75000  1.0000
  Se  Se2       1.0  0.90349  0.59257  0.75000  1.0000
  Se  Se3       1.0  0.09651  0.40743  0.25000  1.0000
  Se  Se4       1.0  0.40743  0.09651  0.25000  1.0000
