data_image0
_chemical_formula_structural       In2Se4
_chemical_formula_sum              "In2 Se4"
_cell_length_a       4.15904
_cell_length_b       5.84229
_cell_length_c       6.69735
_cell_angle_alpha    90
_cell_angle_beta     90
_cell_angle_gamma    90

_space_group_name_H-M_alt    "P 1"
_space_group_IT_number       1

loop_
  _space_group_symop_operation_xyz
  'x, y, z'

loop_
  _atom_site_type_symbol
  _atom_site_label
  _atom_site_symmetry_multiplicity
  _atom_site_fract_x
  _atom_site_fract_y
  _atom_site_fract_z
  _atom_site_occupancy
  In  In1       1.0  0.00000  0.00000  0.00000  1.0000
  In  In2       1.0  0.50000  0.50000  0.50000  1.0000
  Se  Se1       1.0  0.00000  0.19771  0.39528  1.0000
  Se  Se2       1.0  0.00000  0.80229  0.60472  1.0000
  Se  Se3       1.0  0.50000  0.69771  0.10472  1.0000
  Se  Se4       1.0  0.50000  0.30229  0.89528  1.0000
