data_image0
_chemical_formula_structural       Ir6Ag8
_chemical_formula_sum              "Ir6 Ag8"
_cell_length_a       7.71567
_cell_length_b       7.71567
_cell_length_c       7.71567
_cell_angle_alpha    60
_cell_angle_beta     60
_cell_angle_gamma    60

_space_group_name_H-M_alt    "P 1"
_space_group_IT_number       1

loop_
  _space_group_symop_operation_xyz
  'x, y, z'

loop_
  _atom_site_type_symbol
  _atom_site_label
  _atom_site_symmetry_multiplicity
  _atom_site_fract_x
  _atom_site_fract_y
  _atom_site_fract_z
  _atom_site_occupancy
  Ir  Ir1       1.0  0.50000  0.50000  0.50000  1.0000
  Ir  Ir2       1.0  0.12500  0.12500  0.62500  1.0000
  Ir  Ir3       1.0  0.12500  0.12500  0.12500  1.0000
  Ir  Ir4       1.0  0.12500  0.62500  0.12500  1.0000
  Ir  Ir5       1.0  0.75000  0.75000  0.75000  1.0000
  Ir  Ir6       1.0  0.62500  0.12500  0.12500  1.0000
  Ag  Ag1       1.0  0.88396  0.88396  0.88396  1.0000
  Ag  Ag2       1.0  0.88396  0.88396  0.34813  1.0000
  Ag  Ag3       1.0  0.36604  0.36604  0.36604  1.0000
  Ag  Ag4       1.0  0.36604  0.36604  0.90187  1.0000
  Ag  Ag5       1.0  0.88396  0.34813  0.88396  1.0000
  Ag  Ag6       1.0  0.36604  0.90187  0.36604  1.0000
  Ag  Ag7       1.0  0.90187  0.36604  0.36604  1.0000
  Ag  Ag8       1.0  0.34813  0.88396  0.88396  1.0000
