data_image0
_chemical_formula_structural       Au8Ir12
_chemical_formula_sum              "Au8 Ir12"
_cell_length_a       5.43753
_cell_length_b       5.43753
_cell_length_c       13.434
_cell_angle_alpha    90
_cell_angle_beta     90
_cell_angle_gamma    120

_space_group_name_H-M_alt    "P 1"
_space_group_IT_number       1

loop_
  _space_group_symop_operation_xyz
  'x, y, z'

loop_
  _atom_site_type_symbol
  _atom_site_label
  _atom_site_symmetry_multiplicity
  _atom_site_fract_x
  _atom_site_fract_y
  _atom_site_fract_z
  _atom_site_occupancy
  Au  Au1       1.0  0.00000  0.00000  0.25000  1.0000
  Au  Au2       1.0  0.00000  0.00000  0.75000  1.0000
  Au  Au3       1.0  0.33333  0.66667  0.25000  1.0000
  Au  Au4       1.0  0.66667  0.33333  0.75000  1.0000
  Au  Au5       1.0  0.33333  0.66667  0.61813  1.0000
  Au  Au6       1.0  0.66667  0.33333  0.11813  1.0000
  Au  Au7       1.0  0.66667  0.33333  0.38187  1.0000
  Au  Au8       1.0  0.33333  0.66667  0.88187  1.0000
  Ir  Ir1       1.0  0.16935  0.33870  0.42116  1.0000
  Ir  Ir2       1.0  0.16935  0.83065  0.42116  1.0000
  Ir  Ir3       1.0  0.66130  0.83065  0.42116  1.0000
  Ir  Ir4       1.0  0.83065  0.16935  0.92116  1.0000
  Ir  Ir5       1.0  0.33870  0.16935  0.92116  1.0000
  Ir  Ir6       1.0  0.83065  0.66130  0.92116  1.0000
  Ir  Ir7       1.0  0.83065  0.66130  0.57884  1.0000
  Ir  Ir8       1.0  0.83065  0.16935  0.57884  1.0000
  Ir  Ir9       1.0  0.33870  0.16935  0.57884  1.0000
  Ir  Ir10      1.0  0.16935  0.83065  0.07884  1.0000
  Ir  Ir11      1.0  0.66130  0.83065  0.07884  1.0000
  Ir  Ir12      1.0  0.16935  0.33870  0.07884  1.0000
