data_image0
_chemical_formula_structural       In3Se4
_chemical_formula_sum              "In3 Se4"
_cell_length_a       7.66124
_cell_length_b       7.66124
_cell_length_c       6.96386
_cell_angle_alpha    67.9904
_cell_angle_beta     67.9904
_cell_angle_gamma    30.6357

_space_group_name_H-M_alt    "P 1"
_space_group_IT_number       1

loop_
  _space_group_symop_operation_xyz
  'x, y, z'

loop_
  _atom_site_type_symbol
  _atom_site_label
  _atom_site_symmetry_multiplicity
  _atom_site_fract_x
  _atom_site_fract_y
  _atom_site_fract_z
  _atom_site_occupancy
  In  In1       1.0  0.23103  0.23103  0.78873  1.0000
  In  In2       1.0  0.76897  0.76897  0.21127  1.0000
  In  In3       1.0  0.50000  0.50000  0.50000  1.0000
  Se  Se1       1.0  0.85971  0.85971  0.49508  1.0000
  Se  Se2       1.0  0.14029  0.14029  0.50492  1.0000
  Se  Se3       1.0  0.37311  0.37311  0.95859  1.0000
  Se  Se4       1.0  0.62689  0.62689  0.04141  1.0000
