data_image0
_chemical_formula_structural       Au9Ir13
_chemical_formula_sum              "Au9 Ir13"
_cell_length_a       8.82976
_cell_length_b       8.82976
_cell_length_c       5.40872
_cell_angle_alpha    90
_cell_angle_beta     90
_cell_angle_gamma    120

_space_group_name_H-M_alt    "P 1"
_space_group_IT_number       1

loop_
  _space_group_symop_operation_xyz
  'x, y, z'

loop_
  _atom_site_type_symbol
  _atom_site_label
  _atom_site_symmetry_multiplicity
  _atom_site_fract_x
  _atom_site_fract_y
  _atom_site_fract_z
  _atom_site_occupancy
  Au  Au1       1.0  0.00000  0.00000  0.50000  1.0000
  Au  Au2       1.0  0.33333  0.66667  0.74947  1.0000
  Au  Au3       1.0  0.66667  0.33333  0.25053  1.0000
  Au  Au4       1.0  0.19023  0.80977  0.25259  1.0000
  Au  Au5       1.0  0.19023  0.38046  0.25259  1.0000
  Au  Au6       1.0  0.61954  0.80977  0.25259  1.0000
  Au  Au7       1.0  0.38046  0.19023  0.74741  1.0000
  Au  Au8       1.0  0.80977  0.61954  0.74741  1.0000
  Au  Au9       1.0  0.80977  0.19023  0.74741  1.0000
  Ir  Ir1       1.0  0.00000  0.00000  0.00000  1.0000
  Ir  Ir2       1.0  0.50000  0.00000  0.00000  1.0000
  Ir  Ir3       1.0  0.00000  0.50000  0.00000  1.0000
  Ir  Ir4       1.0  0.50000  0.50000  0.00000  1.0000
  Ir  Ir5       1.0  0.50000  0.00000  0.50000  1.0000
  Ir  Ir6       1.0  0.00000  0.50000  0.50000  1.0000
  Ir  Ir7       1.0  0.50000  0.50000  0.50000  1.0000
  Ir  Ir8       1.0  0.16253  0.83747  0.75471  1.0000
  Ir  Ir9       1.0  0.16253  0.32507  0.75471  1.0000
  Ir  Ir10      1.0  0.67493  0.83747  0.75471  1.0000
  Ir  Ir11      1.0  0.32507  0.16253  0.24529  1.0000
  Ir  Ir12      1.0  0.83747  0.67493  0.24529  1.0000
  Ir  Ir13      1.0  0.83747  0.16253  0.24529  1.0000
