data_image0
_chemical_formula_structural       Ir3Br8
_chemical_formula_sum              "Ir3 Br8"
_cell_length_a       6.41955
_cell_length_b       6.41955
_cell_length_c       6.41955
_cell_angle_alpha    93.8436
_cell_angle_beta     93.8436
_cell_angle_gamma    93.8436

_space_group_name_H-M_alt    "P 1"
_space_group_IT_number       1

loop_
  _space_group_symop_operation_xyz
  'x, y, z'

loop_
  _atom_site_type_symbol
  _atom_site_label
  _atom_site_symmetry_multiplicity
  _atom_site_fract_x
  _atom_site_fract_y
  _atom_site_fract_z
  _atom_site_occupancy
  Ir  Ir1       1.0  0.50000  0.00000  0.50000  1.0000
  Ir  Ir2       1.0  0.00000  0.50000  0.50000  1.0000
  Ir  Ir3       1.0  0.50000  0.50000  0.00000  1.0000
  Br  Br1       1.0  0.63708  0.85113  0.17153  1.0000
  Br  Br2       1.0  0.85113  0.17153  0.63708  1.0000
  Br  Br3       1.0  0.17153  0.63708  0.85113  1.0000
  Br  Br4       1.0  0.66938  0.66938  0.66938  1.0000
  Br  Br5       1.0  0.33062  0.33062  0.33062  1.0000
  Br  Br6       1.0  0.82847  0.36292  0.14887  1.0000
  Br  Br7       1.0  0.14887  0.82847  0.36292  1.0000
  Br  Br8       1.0  0.36292  0.14887  0.82847  1.0000
