data_image0
_chemical_formula_structural       Ir4Au12
_chemical_formula_sum              "Ir4 Au12"
_cell_length_a       8.53376
_cell_length_b       8.53376
_cell_length_c       5.87181
_cell_angle_alpha    90
_cell_angle_beta     90
_cell_angle_gamma    140.155

_space_group_name_H-M_alt    "P 1"
_space_group_IT_number       1

loop_
  _space_group_symop_operation_xyz
  'x, y, z'

loop_
  _atom_site_type_symbol
  _atom_site_label
  _atom_site_symmetry_multiplicity
  _atom_site_fract_x
  _atom_site_fract_y
  _atom_site_fract_z
  _atom_site_occupancy
  Ir  Ir1       1.0  0.62348  0.37652  0.00000  1.0000
  Ir  Ir2       1.0  0.37652  0.62348  0.00000  1.0000
  Ir  Ir3       1.0  0.12348  0.87652  0.50000  1.0000
  Ir  Ir4       1.0  0.87652  0.12348  0.50000  1.0000
  Au  Au1       1.0  0.74961  0.74961  0.24989  1.0000
  Au  Au2       1.0  0.24961  0.24961  0.25011  1.0000
  Au  Au3       1.0  0.75039  0.75039  0.74989  1.0000
  Au  Au4       1.0  0.37364  0.62636  0.50000  1.0000
  Au  Au5       1.0  0.99830  0.49830  0.75000  1.0000
  Au  Au6       1.0  0.87364  0.12636  0.00000  1.0000
  Au  Au7       1.0  0.00170  0.50170  0.25000  1.0000
  Au  Au8       1.0  0.25039  0.25039  0.75011  1.0000
  Au  Au9       1.0  0.62636  0.37364  0.50000  1.0000
  Au  Au10      1.0  0.12636  0.87364  0.00000  1.0000
  Au  Au11      1.0  0.50170  0.00170  0.25000  1.0000
  Au  Au12      1.0  0.49830  0.99830  0.75000  1.0000
