data_image0
_chemical_formula_structural       Se6In2
_chemical_formula_sum              "Se6 In2"
_cell_length_a       4.56782
_cell_length_b       9.08247
_cell_length_c       5.6275
_cell_angle_alpha    90
_cell_angle_beta     90
_cell_angle_gamma    90

_space_group_name_H-M_alt    "P 1"
_space_group_IT_number       1

loop_
  _space_group_symop_operation_xyz
  'x, y, z'

loop_
  _atom_site_type_symbol
  _atom_site_label
  _atom_site_symmetry_multiplicity
  _atom_site_fract_x
  _atom_site_fract_y
  _atom_site_fract_z
  _atom_site_occupancy
  Se  Se1       1.0  0.00000  0.43962  0.24939  1.0000
  Se  Se2       1.0  0.00000  0.43962  0.75061  1.0000
  Se  Se3       1.0  0.50000  0.56038  0.25061  1.0000
  Se  Se4       1.0  0.50000  0.56038  0.74939  1.0000
  Se  Se5       1.0  0.00000  0.87471  0.50000  1.0000
  Se  Se6       1.0  0.50000  0.12529  0.00000  1.0000
  In  In1       1.0  0.00000  0.93631  0.00000  1.0000
  In  In2       1.0  0.50000  0.06369  0.50000  1.0000
