data_image0
_chemical_formula_structural       S6In2
_chemical_formula_sum              "S6 In2"
_cell_length_a       7.14315
_cell_length_b       7.14315
_cell_length_c       3.59449
_cell_angle_alpha    90
_cell_angle_beta     90
_cell_angle_gamma    120

_space_group_name_H-M_alt    "P 1"
_space_group_IT_number       1

loop_
  _space_group_symop_operation_xyz
  'x, y, z'

loop_
  _atom_site_type_symbol
  _atom_site_label
  _atom_site_symmetry_multiplicity
  _atom_site_fract_x
  _atom_site_fract_y
  _atom_site_fract_z
  _atom_site_occupancy
  S   S1        1.0  0.16664  0.33327  0.25000  1.0000
  S   S2        1.0  0.66673  0.83336  0.25000  1.0000
  S   S3        1.0  0.16664  0.83336  0.25000  1.0000
  S   S4        1.0  0.83336  0.66673  0.75000  1.0000
  S   S5        1.0  0.33327  0.16664  0.75000  1.0000
  S   S6        1.0  0.83336  0.16664  0.75000  1.0000
  In  In1       1.0  0.33333  0.66667  0.75000  1.0000
  In  In2       1.0  0.66667  0.33333  0.25000  1.0000
