data_image0
_chemical_formula_structural       IrAu4
_chemical_formula_sum              "Ir1 Au4"
_cell_length_a       5.01964
_cell_length_b       5.01964
_cell_length_c       5.01964
_cell_angle_alpha    99.8938
_cell_angle_beta     99.8938
_cell_angle_gamma    131.023

_space_group_name_H-M_alt    "P 1"
_space_group_IT_number       1

loop_
  _space_group_symop_operation_xyz
  'x, y, z'

loop_
  _atom_site_type_symbol
  _atom_site_label
  _atom_site_symmetry_multiplicity
  _atom_site_fract_x
  _atom_site_fract_y
  _atom_site_fract_z
  _atom_site_occupancy
  Ir  Ir1       1.0  0.00000  0.00000  0.00000  1.0000
  Au  Au1       1.0  0.60268  0.79721  0.39989  1.0000
  Au  Au2       1.0  0.39732  0.20279  0.60011  1.0000
  Au  Au3       1.0  0.20279  0.60268  0.80547  1.0000
  Au  Au4       1.0  0.79721  0.39732  0.19453  1.0000
