data_image0
_chemical_formula_structural       InSe2
_chemical_formula_sum              "In1 Se2"
_cell_length_a       5.96514
_cell_length_b       5.96514
_cell_length_c       5.96514
_cell_angle_alpha    145.206
_cell_angle_beta     145.183
_cell_angle_gamma    50.0446

_space_group_name_H-M_alt    "P 1"
_space_group_IT_number       1

loop_
  _space_group_symop_operation_xyz
  'x, y, z'

loop_
  _atom_site_type_symbol
  _atom_site_label
  _atom_site_symmetry_multiplicity
  _atom_site_fract_x
  _atom_site_fract_y
  _atom_site_fract_z
  _atom_site_occupancy
  In  In1       1.0  0.00000  0.00000  0.00000  1.0000
  Se  Se1       1.0  0.64872  0.64872  0.00000  1.0000
  Se  Se2       1.0  0.35128  0.35128  0.00000  1.0000
