data_image0
_chemical_formula_structural       InSe4
_chemical_formula_sum              "In1 Se4"
_cell_length_a       6.55749
_cell_length_b       6.55749
_cell_length_c       6.55749
_cell_angle_alpha    95.9806
_cell_angle_beta     95.9806
_cell_angle_gamma    142.337

_space_group_name_H-M_alt    "P 1"
_space_group_IT_number       1

loop_
  _space_group_symop_operation_xyz
  'x, y, z'

loop_
  _atom_site_type_symbol
  _atom_site_label
  _atom_site_symmetry_multiplicity
  _atom_site_fract_x
  _atom_site_fract_y
  _atom_site_fract_z
  _atom_site_occupancy
  In  In1       1.0  0.00000  0.00000  0.00000  1.0000
  Se  Se1       1.0  0.68598  0.77756  0.46354  1.0000
  Se  Se2       1.0  0.31402  0.22244  0.53646  1.0000
  Se  Se3       1.0  0.22244  0.68598  0.90842  1.0000
  Se  Se4       1.0  0.77756  0.31402  0.09158  1.0000
