data_image0
_chemical_formula_structural       Ir6Au6
_chemical_formula_sum              "Ir6 Au6"
_cell_length_a       3.90122
_cell_length_b       3.90122
_cell_length_c       13.9829
_cell_angle_alpha    90
_cell_angle_beta     90
_cell_angle_gamma    91.6657

_space_group_name_H-M_alt    "P 1"
_space_group_IT_number       1

loop_
  _space_group_symop_operation_xyz
  'x, y, z'

loop_
  _atom_site_type_symbol
  _atom_site_label
  _atom_site_symmetry_multiplicity
  _atom_site_fract_x
  _atom_site_fract_y
  _atom_site_fract_z
  _atom_site_occupancy
  Ir  Ir1       1.0  0.40198  0.59802  0.08349  1.0000
  Ir  Ir2       1.0  0.59802  0.40198  0.91651  1.0000
  Ir  Ir3       1.0  0.59802  0.40198  0.58349  1.0000
  Ir  Ir4       1.0  0.40198  0.59802  0.41651  1.0000
  Ir  Ir5       1.0  0.40358  0.59642  0.75000  1.0000
  Ir  Ir6       1.0  0.59642  0.40358  0.25000  1.0000
  Au  Au1       1.0  0.87775  0.12225  0.75000  1.0000
  Au  Au2       1.0  0.12225  0.87775  0.25000  1.0000
  Au  Au3       1.0  0.12399  0.87601  0.58328  1.0000
  Au  Au4       1.0  0.87601  0.12399  0.08328  1.0000
  Au  Au5       1.0  0.12399  0.87601  0.91672  1.0000
  Au  Au6       1.0  0.87601  0.12399  0.41672  1.0000
