data_image0
_chemical_formula_structural       Ir8Au16
_chemical_formula_sum              "Ir8 Au16"
_cell_length_a       4.57902
_cell_length_b       8.084
_cell_length_c       11.2749
_cell_angle_alpha    90
_cell_angle_beta     90
_cell_angle_gamma    90

_space_group_name_H-M_alt    "P 1"
_space_group_IT_number       1

loop_
  _space_group_symop_operation_xyz
  'x, y, z'

loop_
  _atom_site_type_symbol
  _atom_site_label
  _atom_site_symmetry_multiplicity
  _atom_site_fract_x
  _atom_site_fract_y
  _atom_site_fract_z
  _atom_site_occupancy
  Ir  Ir1       1.0  0.49464  0.81005  0.12404  1.0000
  Ir  Ir2       1.0  0.00536  0.68995  0.62404  1.0000
  Ir  Ir3       1.0  0.00536  0.31005  0.87596  1.0000
  Ir  Ir4       1.0  0.49464  0.18995  0.37596  1.0000
  Ir  Ir5       1.0  0.50536  0.18995  0.87596  1.0000
  Ir  Ir6       1.0  0.99464  0.31005  0.37596  1.0000
  Ir  Ir7       1.0  0.99464  0.68995  0.12404  1.0000
  Ir  Ir8       1.0  0.50536  0.81005  0.62404  1.0000
  Au  Au1       1.0  0.49511  0.50000  0.25000  1.0000
  Au  Au2       1.0  0.00489  0.00000  0.75000  1.0000
  Au  Au3       1.0  0.50489  0.50000  0.75000  1.0000
  Au  Au4       1.0  0.99511  0.00000  0.25000  1.0000
  Au  Au5       1.0  0.49733  0.85028  0.37400  1.0000
  Au  Au6       1.0  0.00267  0.64972  0.87400  1.0000
  Au  Au7       1.0  0.00267  0.35028  0.62600  1.0000
  Au  Au8       1.0  0.49733  0.14972  0.12600  1.0000
  Au  Au9       1.0  0.50267  0.14972  0.62600  1.0000
  Au  Au10      1.0  0.99733  0.35028  0.12600  1.0000
  Au  Au11      1.0  0.99733  0.64972  0.37400  1.0000
  Au  Au12      1.0  0.50267  0.85028  0.87400  1.0000
  Au  Au13      1.0  0.50000  0.50000  0.00000  1.0000
  Au  Au14      1.0  0.00000  0.00000  0.50000  1.0000
  Au  Au15      1.0  0.00000  0.00000  0.00000  1.0000
  Au  Au16      1.0  0.50000  0.50000  0.50000  1.0000
