data_image0
_chemical_formula_structural       Se9Ir13
_chemical_formula_sum              "Se9 Ir13"
_cell_length_a       7.84517
_cell_length_b       7.84517
_cell_length_c       6.93592
_cell_angle_alpha    90
_cell_angle_beta     90
_cell_angle_gamma    120

_space_group_name_H-M_alt    "P 1"
_space_group_IT_number       1

loop_
  _space_group_symop_operation_xyz
  'x, y, z'

loop_
  _atom_site_type_symbol
  _atom_site_label
  _atom_site_symmetry_multiplicity
  _atom_site_fract_x
  _atom_site_fract_y
  _atom_site_fract_z
  _atom_site_occupancy
  Se  Se1       1.0  0.00000  0.00000  0.50000  1.0000
  Se  Se2       1.0  0.33333  0.66667  0.65573  1.0000
  Se  Se3       1.0  0.66667  0.33333  0.34427  1.0000
  Se  Se4       1.0  0.19661  0.80339  0.21699  1.0000
  Se  Se5       1.0  0.19661  0.39322  0.21699  1.0000
  Se  Se6       1.0  0.60678  0.80339  0.21699  1.0000
  Se  Se7       1.0  0.39322  0.19661  0.78301  1.0000
  Se  Se8       1.0  0.80339  0.60678  0.78301  1.0000
  Se  Se9       1.0  0.80339  0.19661  0.78301  1.0000
  Ir  Ir1       1.0  0.00000  0.00000  0.00000  1.0000
  Ir  Ir2       1.0  0.50000  0.00000  0.00000  1.0000
  Ir  Ir3       1.0  0.00000  0.50000  0.00000  1.0000
  Ir  Ir4       1.0  0.50000  0.50000  0.00000  1.0000
  Ir  Ir5       1.0  0.50000  0.00000  0.50000  1.0000
  Ir  Ir6       1.0  0.00000  0.50000  0.50000  1.0000
  Ir  Ir7       1.0  0.50000  0.50000  0.50000  1.0000
  Ir  Ir8       1.0  0.16297  0.83703  0.75137  1.0000
  Ir  Ir9       1.0  0.16297  0.32593  0.75137  1.0000
  Ir  Ir10      1.0  0.67407  0.83703  0.75137  1.0000
  Ir  Ir11      1.0  0.32593  0.16297  0.24863  1.0000
  Ir  Ir12      1.0  0.83703  0.67407  0.24863  1.0000
  Ir  Ir13      1.0  0.83703  0.16297  0.24863  1.0000
