data_image0
_chemical_formula_structural       Ir4S8
_chemical_formula_sum              "Ir4 S8"
_cell_length_a       12.4062
_cell_length_b       12.4062
_cell_length_c       5.95376
_cell_angle_alpha    90
_cell_angle_beta     90
_cell_angle_gamma    163.468

_space_group_name_H-M_alt    "P 1"
_space_group_IT_number       1

loop_
  _space_group_symop_operation_xyz
  'x, y, z'

loop_
  _atom_site_type_symbol
  _atom_site_label
  _atom_site_symmetry_multiplicity
  _atom_site_fract_x
  _atom_site_fract_y
  _atom_site_fract_z
  _atom_site_occupancy
  Ir  Ir1       1.0  0.61153  0.38847  0.73146  1.0000
  Ir  Ir2       1.0  0.38847  0.61153  0.23146  1.0000
  Ir  Ir3       1.0  0.88427  0.11573  0.69780  1.0000
  Ir  Ir4       1.0  0.11573  0.88427  0.19780  1.0000
  S   S1        1.0  0.05741  0.94259  0.87768  1.0000
  S   S2        1.0  0.94259  0.05741  0.37768  1.0000
  S   S3        1.0  0.15984  0.84016  0.55574  1.0000
  S   S4        1.0  0.84016  0.15984  0.05574  1.0000
  S   S5        1.0  0.66979  0.33021  0.05109  1.0000
  S   S6        1.0  0.33021  0.66979  0.55109  1.0000
  S   S7        1.0  0.56803  0.43197  0.37423  1.0000
  S   S8        1.0  0.43197  0.56803  0.87423  1.0000
