data_image0
_chemical_formula_structural       In2Se6
_chemical_formula_sum              "In2 Se6"
_cell_length_a       8.11157
_cell_length_b       8.11157
_cell_length_c       8.11157
_cell_angle_alpha    143.445
_cell_angle_beta     143.445
_cell_angle_gamma    52.6584

_space_group_name_H-M_alt    "P 1"
_space_group_IT_number       1

loop_
  _space_group_symop_operation_xyz
  'x, y, z'

loop_
  _atom_site_type_symbol
  _atom_site_label
  _atom_site_symmetry_multiplicity
  _atom_site_fract_x
  _atom_site_fract_y
  _atom_site_fract_z
  _atom_site_occupancy
  In  In1       1.0  0.84527  0.84527  0.00000  1.0000
  In  In2       1.0  0.15473  0.15473  0.00000  1.0000
  Se  Se1       1.0  0.00000  0.50000  0.50000  1.0000
  Se  Se2       1.0  0.50000  0.00000  0.50000  1.0000
  Se  Se3       1.0  0.75000  0.25000  0.50000  1.0000
  Se  Se4       1.0  0.25000  0.75000  0.50000  1.0000
  Se  Se5       1.0  0.58510  0.58510  0.00000  1.0000
  Se  Se6       1.0  0.41490  0.41490  0.00000  1.0000
