data_image0
_chemical_formula_structural       Ir3S8
_chemical_formula_sum              "Ir3 S8"
_cell_length_a       5.71225
_cell_length_b       5.71225
_cell_length_c       5.71225
_cell_angle_alpha    89.4051
_cell_angle_beta     89.4051
_cell_angle_gamma    89.4051

_space_group_name_H-M_alt    "P 1"
_space_group_IT_number       1

loop_
  _space_group_symop_operation_xyz
  'x, y, z'

loop_
  _atom_site_type_symbol
  _atom_site_label
  _atom_site_symmetry_multiplicity
  _atom_site_fract_x
  _atom_site_fract_y
  _atom_site_fract_z
  _atom_site_occupancy
  Ir  Ir1       1.0  0.50000  0.00000  0.50000  1.0000
  Ir  Ir2       1.0  1.00000  0.50000  0.50000  1.0000
  Ir  Ir3       1.0  0.50000  0.50000  0.00000  1.0000
  S   S1        1.0  0.60528  0.88977  0.11089  1.0000
  S   S2        1.0  0.88977  0.11089  0.60528  1.0000
  S   S3        1.0  0.11089  0.60528  0.88977  1.0000
  S   S4        1.0  0.62654  0.62654  0.62654  1.0000
  S   S5        1.0  0.37346  0.37346  0.37346  1.0000
  S   S6        1.0  0.88911  0.39472  0.11023  1.0000
  S   S7        1.0  0.11023  0.88911  0.39472  1.0000
  S   S8        1.0  0.39472  0.11023  0.88911  1.0000
