data_image0
_chemical_formula_structural       Au10Ir6
_chemical_formula_sum              "Au10 Ir6"
_cell_length_a       7.63718
_cell_length_b       7.63718
_cell_length_c       7.63718
_cell_angle_alpha    126.282
_cell_angle_beta     126.282
_cell_angle_gamma    79.4245

_space_group_name_H-M_alt    "P 1"
_space_group_IT_number       1

loop_
  _space_group_symop_operation_xyz
  'x, y, z'

loop_
  _atom_site_type_symbol
  _atom_site_label
  _atom_site_symmetry_multiplicity
  _atom_site_fract_x
  _atom_site_fract_y
  _atom_site_fract_z
  _atom_site_occupancy
  Au  Au1       1.0  0.49941  0.68159  0.50000  1.0000
  Au  Au2       1.0  0.50059  0.31841  0.50000  1.0000
  Au  Au3       1.0  0.50000  0.50000  0.00000  1.0000
  Au  Au4       1.0  0.00000  0.00000  0.00000  1.0000
  Au  Au5       1.0  0.18159  0.99941  0.50000  1.0000
  Au  Au6       1.0  0.99941  0.49941  0.81782  1.0000
  Au  Au7       1.0  0.68159  0.18159  0.18218  1.0000
  Au  Au8       1.0  0.31841  0.81841  0.81782  1.0000
  Au  Au9       1.0  0.00059  0.50059  0.18218  1.0000
  Au  Au10      1.0  0.81841  0.00059  0.50000  1.0000
  Ir  Ir1       1.0  0.87057  0.62943  0.50000  1.0000
  Ir  Ir2       1.0  0.62943  0.12943  0.75885  1.0000
  Ir  Ir3       1.0  0.37057  0.87057  0.24115  1.0000
  Ir  Ir4       1.0  0.12943  0.37057  0.50000  1.0000
  Ir  Ir5       1.0  0.25000  0.25000  0.00000  1.0000
  Ir  Ir6       1.0  0.75000  0.75000  0.00000  1.0000
