data_image0
_chemical_formula_structural       IrSe2
_chemical_formula_sum              "Ir1 Se2"
_cell_length_a       6.63333
_cell_length_b       6.63333
_cell_length_c       6.63333
_cell_angle_alpha    152.809
_cell_angle_beta     152.809
_cell_angle_gamma    38.8327

_space_group_name_H-M_alt    "P 1"
_space_group_IT_number       1

loop_
  _space_group_symop_operation_xyz
  'x, y, z'

loop_
  _atom_site_type_symbol
  _atom_site_label
  _atom_site_symmetry_multiplicity
  _atom_site_fract_x
  _atom_site_fract_y
  _atom_site_fract_z
  _atom_site_occupancy
  Ir  Ir1       1.0  0.00000  0.00000  0.00000  1.0000
  Se  Se1       1.0  0.62237  0.62237  0.00000  1.0000
  Se  Se2       1.0  0.37763  0.37763  0.00000  1.0000
