data_image0
_chemical_formula_structural       Ir2I6
_chemical_formula_sum              "Ir2 I6"
_cell_length_a       11.2671
_cell_length_b       11.2671
_cell_length_c       3.69202
_cell_angle_alpha    90
_cell_angle_beta     90
_cell_angle_gamma    120

_space_group_name_H-M_alt    "P 1"
_space_group_IT_number       1

loop_
  _space_group_symop_operation_xyz
  'x, y, z'

loop_
  _atom_site_type_symbol
  _atom_site_label
  _atom_site_symmetry_multiplicity
  _atom_site_fract_x
  _atom_site_fract_y
  _atom_site_fract_z
  _atom_site_occupancy
  Ir  Ir1       1.0  0.33333  0.66667  0.75000  1.0000
  Ir  Ir2       1.0  0.66667  0.33333  0.25000  1.0000
  I   I1        1.0  0.23034  0.46068  0.25000  1.0000
  I   I2        1.0  0.53932  0.76966  0.25000  1.0000
  I   I3        1.0  0.23034  0.76966  0.25000  1.0000
  I   I4        1.0  0.76966  0.53932  0.75000  1.0000
  I   I5        1.0  0.46068  0.23034  0.75000  1.0000
  I   I6        1.0  0.76966  0.23034  0.75000  1.0000
