data_image0
_chemical_formula_structural       S9Ir13
_chemical_formula_sum              "S9 Ir13"
_cell_length_a       7.43327
_cell_length_b       7.43327
_cell_length_c       7.02297
_cell_angle_alpha    90
_cell_angle_beta     90
_cell_angle_gamma    120

_space_group_name_H-M_alt    "P 1"
_space_group_IT_number       1

loop_
  _space_group_symop_operation_xyz
  'x, y, z'

loop_
  _atom_site_type_symbol
  _atom_site_label
  _atom_site_symmetry_multiplicity
  _atom_site_fract_x
  _atom_site_fract_y
  _atom_site_fract_z
  _atom_site_occupancy
  S   S1        1.0  0.00000  0.00000  0.50000  1.0000
  S   S2        1.0  0.33333  0.66667  0.63885  1.0000
  S   S3        1.0  0.66667  0.33333  0.36115  1.0000
  S   S4        1.0  0.19607  0.80393  0.20775  1.0000
  S   S5        1.0  0.19607  0.39214  0.20775  1.0000
  S   S6        1.0  0.60786  0.80393  0.20775  1.0000
  S   S7        1.0  0.39214  0.19607  0.79225  1.0000
  S   S8        1.0  0.80393  0.60786  0.79225  1.0000
  S   S9        1.0  0.80393  0.19607  0.79225  1.0000
  Ir  Ir1       1.0  0.00000  0.00000  0.00000  1.0000
  Ir  Ir2       1.0  0.50000  0.00000  0.00000  1.0000
  Ir  Ir3       1.0  0.00000  0.50000  0.00000  1.0000
  Ir  Ir4       1.0  0.50000  0.50000  0.00000  1.0000
  Ir  Ir5       1.0  0.50000  0.00000  0.50000  1.0000
  Ir  Ir6       1.0  0.00000  0.50000  0.50000  1.0000
  Ir  Ir7       1.0  0.50000  0.50000  0.50000  1.0000
  Ir  Ir8       1.0  0.16273  0.83727  0.74625  1.0000
  Ir  Ir9       1.0  0.16273  0.32546  0.74625  1.0000
  Ir  Ir10      1.0  0.67454  0.83727  0.74625  1.0000
  Ir  Ir11      1.0  0.32546  0.16273  0.25375  1.0000
  Ir  Ir12      1.0  0.83727  0.67454  0.25375  1.0000
  Ir  Ir13      1.0  0.83727  0.16273  0.25375  1.0000
