data_image0
_chemical_formula_structural       Au2Ir6
_chemical_formula_sum              "Au2 Ir6"
_cell_length_a       8.37814
_cell_length_b       8.37814
_cell_length_c       8.37814
_cell_angle_alpha    152.769
_cell_angle_beta     152.769
_cell_angle_gamma    38.8912

_space_group_name_H-M_alt    "P 1"
_space_group_IT_number       1

loop_
  _space_group_symop_operation_xyz
  'x, y, z'

loop_
  _atom_site_type_symbol
  _atom_site_label
  _atom_site_symmetry_multiplicity
  _atom_site_fract_x
  _atom_site_fract_y
  _atom_site_fract_z
  _atom_site_occupancy
  Au  Au1       1.0  0.87552  0.87552  0.00000  1.0000
  Au  Au2       1.0  0.12448  0.12448  0.00000  1.0000
  Ir  Ir1       1.0  0.00000  0.50000  0.50000  1.0000
  Ir  Ir2       1.0  0.50000  0.00000  0.50000  1.0000
  Ir  Ir3       1.0  0.75000  0.25000  0.50000  1.0000
  Ir  Ir4       1.0  0.25000  0.75000  0.50000  1.0000
  Ir  Ir5       1.0  0.62677  0.62677  0.00000  1.0000
  Ir  Ir6       1.0  0.37323  0.37323  0.00000  1.0000
