data_image0
_chemical_formula_structural       Ir8Ag8
_chemical_formula_sum              "Ir8 Ag8"
_cell_length_a       6.42547
_cell_length_b       6.42547
_cell_length_c       7.7365
_cell_angle_alpha    90
_cell_angle_beta     90
_cell_angle_gamma    90

_space_group_name_H-M_alt    "P 1"
_space_group_IT_number       1

loop_
  _space_group_symop_operation_xyz
  'x, y, z'

loop_
  _atom_site_type_symbol
  _atom_site_label
  _atom_site_symmetry_multiplicity
  _atom_site_fract_x
  _atom_site_fract_y
  _atom_site_fract_z
  _atom_site_occupancy
  Ir  Ir1       1.0  0.64664  0.61300  0.00000  1.0000
  Ir  Ir2       1.0  0.38700  0.64664  0.50000  1.0000
  Ir  Ir3       1.0  0.61300  0.35336  0.50000  1.0000
  Ir  Ir4       1.0  0.35336  0.38700  0.00000  1.0000
  Ir  Ir5       1.0  0.50000  0.00000  0.50000  1.0000
  Ir  Ir6       1.0  0.00000  0.50000  0.00000  1.0000
  Ir  Ir7       1.0  0.00000  0.00000  0.75000  1.0000
  Ir  Ir8       1.0  0.00000  0.00000  0.25000  1.0000
  Ag  Ag1       1.0  0.17363  0.35976  0.68023  1.0000
  Ag  Ag2       1.0  0.64024  0.17363  0.18023  1.0000
  Ag  Ag3       1.0  0.35976  0.82637  0.18023  1.0000
  Ag  Ag4       1.0  0.82637  0.64024  0.68023  1.0000
  Ag  Ag5       1.0  0.82637  0.64024  0.31977  1.0000
  Ag  Ag6       1.0  0.35976  0.82637  0.81977  1.0000
  Ag  Ag7       1.0  0.64024  0.17363  0.81977  1.0000
  Ag  Ag8       1.0  0.17363  0.35976  0.31977  1.0000
