data_image0
_chemical_formula_structural       Br8Ir12
_chemical_formula_sum              "Br8 Ir12"
_cell_length_a       5.23664
_cell_length_b       5.23664
_cell_length_c       20.8091
_cell_angle_alpha    90
_cell_angle_beta     90
_cell_angle_gamma    120

_space_group_name_H-M_alt    "P 1"
_space_group_IT_number       1

loop_
  _space_group_symop_operation_xyz
  'x, y, z'

loop_
  _atom_site_type_symbol
  _atom_site_label
  _atom_site_symmetry_multiplicity
  _atom_site_fract_x
  _atom_site_fract_y
  _atom_site_fract_z
  _atom_site_occupancy
  Br  Br1       1.0  0.00000  0.00000  0.25000  1.0000
  Br  Br2       1.0  0.00000  0.00000  0.75000  1.0000
  Br  Br3       1.0  0.33333  0.66667  0.25000  1.0000
  Br  Br4       1.0  0.66667  0.33333  0.75000  1.0000
  Br  Br5       1.0  0.33333  0.66667  0.63018  1.0000
  Br  Br6       1.0  0.66667  0.33333  0.13018  1.0000
  Br  Br7       1.0  0.66667  0.33333  0.36982  1.0000
  Br  Br8       1.0  0.33333  0.66667  0.86982  1.0000
  Ir  Ir1       1.0  0.16854  0.33707  0.45264  1.0000
  Ir  Ir2       1.0  0.16854  0.83146  0.45264  1.0000
  Ir  Ir3       1.0  0.66293  0.83146  0.45264  1.0000
  Ir  Ir4       1.0  0.83146  0.16854  0.95264  1.0000
  Ir  Ir5       1.0  0.33707  0.16854  0.95264  1.0000
  Ir  Ir6       1.0  0.83146  0.66293  0.95264  1.0000
  Ir  Ir7       1.0  0.83146  0.66293  0.54736  1.0000
  Ir  Ir8       1.0  0.83146  0.16854  0.54736  1.0000
  Ir  Ir9       1.0  0.33707  0.16854  0.54736  1.0000
  Ir  Ir10      1.0  0.16854  0.83146  0.04736  1.0000
  Ir  Ir11      1.0  0.66293  0.83146  0.04736  1.0000
  Ir  Ir12      1.0  0.16854  0.33707  0.04736  1.0000
