data_image0
_chemical_formula_structural       Ir8Br16
_chemical_formula_sum              "Ir8 Br16"
_cell_length_a       13.5075
_cell_length_b       9.19106
_cell_length_c       5.71546
_cell_angle_alpha    90
_cell_angle_beta     90
_cell_angle_gamma    90

_space_group_name_H-M_alt    "P 1"
_space_group_IT_number       1

loop_
  _space_group_symop_operation_xyz
  'x, y, z'

loop_
  _atom_site_type_symbol
  _atom_site_label
  _atom_site_symmetry_multiplicity
  _atom_site_fract_x
  _atom_site_fract_y
  _atom_site_fract_z
  _atom_site_occupancy
  Ir  Ir1       1.0  0.49997  0.77742  0.00201  1.0000
  Ir  Ir2       1.0  0.00003  0.72258  0.50201  1.0000
  Ir  Ir3       1.0  0.00003  0.27742  0.99799  1.0000
  Ir  Ir4       1.0  0.49997  0.22258  0.49799  1.0000
  Ir  Ir5       1.0  0.50003  0.22258  0.99799  1.0000
  Ir  Ir6       1.0  0.99997  0.27742  0.49799  1.0000
  Ir  Ir7       1.0  0.99997  0.72258  0.00201  1.0000
  Ir  Ir8       1.0  0.50003  0.77742  0.50201  1.0000
  Br  Br1       1.0  0.06632  0.50000  0.25000  1.0000
  Br  Br2       1.0  0.43368  0.00000  0.75000  1.0000
  Br  Br3       1.0  0.93368  0.50000  0.75000  1.0000
  Br  Br4       1.0  0.56632  0.00000  0.25000  1.0000
  Br  Br5       1.0  0.34914  0.77489  0.25276  1.0000
  Br  Br6       1.0  0.15086  0.72511  0.75276  1.0000
  Br  Br7       1.0  0.15086  0.27489  0.74724  1.0000
  Br  Br8       1.0  0.34914  0.22511  0.24724  1.0000
  Br  Br9       1.0  0.65086  0.22511  0.74724  1.0000
  Br  Br10      1.0  0.84914  0.27489  0.24724  1.0000
  Br  Br11      1.0  0.84914  0.72511  0.25276  1.0000
  Br  Br12      1.0  0.65086  0.77489  0.75276  1.0000
  Br  Br13      1.0  0.50000  0.50000  0.00000  1.0000
  Br  Br14      1.0  0.00000  0.00000  0.50000  1.0000
  Br  Br15      1.0  0.00000  0.00000  0.00000  1.0000
  Br  Br16      1.0  0.50000  0.50000  0.50000  1.0000
