data_image0
_chemical_formula_structural       Ir6N8
_chemical_formula_sum              "Ir6 N8"
_cell_length_a       6.09248
_cell_length_b       6.09248
_cell_length_c       6.09248
_cell_angle_alpha    60
_cell_angle_beta     60
_cell_angle_gamma    60

_space_group_name_H-M_alt    "P 1"
_space_group_IT_number       1

loop_
  _space_group_symop_operation_xyz
  'x, y, z'

loop_
  _atom_site_type_symbol
  _atom_site_label
  _atom_site_symmetry_multiplicity
  _atom_site_fract_x
  _atom_site_fract_y
  _atom_site_fract_z
  _atom_site_occupancy
  Ir  Ir1       1.0  0.50000  0.50000  0.50000  1.0000
  Ir  Ir2       1.0  0.12500  0.12500  0.62500  1.0000
  Ir  Ir3       1.0  0.12500  0.12500  0.12500  1.0000
  Ir  Ir4       1.0  0.12500  0.62500  0.12500  1.0000
  Ir  Ir5       1.0  0.75000  0.75000  0.75000  1.0000
  Ir  Ir6       1.0  0.62500  0.12500  0.12500  1.0000
  N   N1        1.0  0.88293  0.88293  0.88293  1.0000
  N   N2        1.0  0.88293  0.88293  0.35122  1.0000
  N   N3        1.0  0.36707  0.36707  0.36707  1.0000
  N   N4        1.0  0.36707  0.36707  0.89878  1.0000
  N   N5        1.0  0.88293  0.35122  0.88293  1.0000
  N   N6        1.0  0.36707  0.89878  0.36707  1.0000
  N   N7        1.0  0.89878  0.36707  0.36707  1.0000
  N   N8        1.0  0.35122  0.88293  0.88293  1.0000
