data_image0
_chemical_formula_structural       Ir4N8
_chemical_formula_sum              "Ir4 N8"
_cell_length_a       4.85585
_cell_length_b       4.85585
_cell_length_c       4.85585
_cell_angle_alpha    90
_cell_angle_beta     90
_cell_angle_gamma    90

_space_group_name_H-M_alt    "P 1"
_space_group_IT_number       1

loop_
  _space_group_symop_operation_xyz
  'x, y, z'

loop_
  _atom_site_type_symbol
  _atom_site_label
  _atom_site_symmetry_multiplicity
  _atom_site_fract_x
  _atom_site_fract_y
  _atom_site_fract_z
  _atom_site_occupancy
  Ir  Ir1       1.0  0.00000  0.50000  0.50000  1.0000
  Ir  Ir2       1.0  0.50000  0.50000  0.00000  1.0000
  Ir  Ir3       1.0  0.50000  0.00000  0.50000  1.0000
  Ir  Ir4       1.0  0.00000  0.00000  0.00000  1.0000
  N   N1        1.0  0.41739  0.08261  0.91739  1.0000
  N   N2        1.0  0.08261  0.91739  0.41739  1.0000
  N   N3        1.0  0.91739  0.41739  0.08261  1.0000
  N   N4        1.0  0.58261  0.58261  0.58261  1.0000
  N   N5        1.0  0.41739  0.41739  0.41739  1.0000
  N   N6        1.0  0.08261  0.58261  0.91739  1.0000
  N   N7        1.0  0.91739  0.08261  0.58261  1.0000
  N   N8        1.0  0.58261  0.91739  0.08261  1.0000
