data_image0
_chemical_formula_structural       In2Se4
_chemical_formula_sum              "In2 Se4"
_cell_length_a       5.78985
_cell_length_b       5.78985
_cell_length_c       5.78985
_cell_angle_alpha    114.387
_cell_angle_beta     114.387
_cell_angle_gamma    100.033

_space_group_name_H-M_alt    "P 1"
_space_group_IT_number       1

loop_
  _space_group_symop_operation_xyz
  'x, y, z'

loop_
  _atom_site_type_symbol
  _atom_site_label
  _atom_site_symmetry_multiplicity
  _atom_site_fract_x
  _atom_site_fract_y
  _atom_site_fract_z
  _atom_site_occupancy
  In  In1       1.0  0.25000  0.25000  0.00000  1.0000
  In  In2       1.0  0.75000  0.75000  0.00000  1.0000
  Se  Se1       1.0  0.63353  0.13353  0.76707  1.0000
  Se  Se2       1.0  0.36647  0.86647  0.23293  1.0000
  Se  Se3       1.0  0.86647  0.63353  0.50000  1.0000
  Se  Se4       1.0  0.13353  0.36647  0.50000  1.0000
