data_image0
_chemical_formula_structural       Ir4S8
_chemical_formula_sum              "Ir4 S8"
_cell_length_a       7.95362
_cell_length_b       7.95362
_cell_length_c       11.5175
_cell_angle_alpha    42.0257
_cell_angle_beta     42.0257
_cell_angle_gamma    26.2256

_space_group_name_H-M_alt    "P 1"
_space_group_IT_number       1

loop_
  _space_group_symop_operation_xyz
  'x, y, z'

loop_
  _atom_site_type_symbol
  _atom_site_label
  _atom_site_symmetry_multiplicity
  _atom_site_fract_x
  _atom_site_fract_y
  _atom_site_fract_z
  _atom_site_occupancy
  Ir  Ir1       1.0  0.75421  0.75421  0.85596  1.0000
  Ir  Ir2       1.0  0.24579  0.24579  0.14404  1.0000
  Ir  Ir3       1.0  0.38646  0.38646  0.43189  1.0000
  Ir  Ir4       1.0  0.61354  0.61354  0.56811  1.0000
  S   S1        1.0  0.12439  0.12439  0.93174  1.0000
  S   S2        1.0  0.87561  0.87561  0.06826  1.0000
  S   S3        1.0  0.89249  0.89249  0.55770  1.0000
  S   S4        1.0  0.10751  0.10751  0.44230  1.0000
  S   S5        1.0  0.62796  0.62796  0.16942  1.0000
  S   S6        1.0  0.37204  0.37204  0.83058  1.0000
  S   S7        1.0  0.14742  0.14742  0.66915  1.0000
  S   S8        1.0  0.85258  0.85258  0.33085  1.0000
