data_image0
_chemical_formula_structural       Cl8Ir12
_chemical_formula_sum              "Cl8 Ir12"
_cell_length_a       5.4169
_cell_length_b       5.4169
_cell_length_c       14.3004
_cell_angle_alpha    90
_cell_angle_beta     90
_cell_angle_gamma    120

_space_group_name_H-M_alt    "P 1"
_space_group_IT_number       1

loop_
  _space_group_symop_operation_xyz
  'x, y, z'

loop_
  _atom_site_type_symbol
  _atom_site_label
  _atom_site_symmetry_multiplicity
  _atom_site_fract_x
  _atom_site_fract_y
  _atom_site_fract_z
  _atom_site_occupancy
  Cl  Cl1       1.0  0.00000  0.00000  0.25000  1.0000
  Cl  Cl2       1.0  0.00000  0.00000  0.75000  1.0000
  Cl  Cl3       1.0  0.33333  0.66667  0.25000  1.0000
  Cl  Cl4       1.0  0.66667  0.33333  0.75000  1.0000
  Cl  Cl5       1.0  0.33333  0.66667  0.64871  1.0000
  Cl  Cl6       1.0  0.66667  0.33333  0.14871  1.0000
  Cl  Cl7       1.0  0.66667  0.33333  0.35129  1.0000
  Cl  Cl8       1.0  0.33333  0.66667  0.85129  1.0000
  Ir  Ir1       1.0  0.17112  0.34224  0.43325  1.0000
  Ir  Ir2       1.0  0.17112  0.82888  0.43325  1.0000
  Ir  Ir3       1.0  0.65776  0.82888  0.43325  1.0000
  Ir  Ir4       1.0  0.82888  0.17112  0.93325  1.0000
  Ir  Ir5       1.0  0.34224  0.17112  0.93325  1.0000
  Ir  Ir6       1.0  0.82888  0.65776  0.93325  1.0000
  Ir  Ir7       1.0  0.82888  0.65776  0.56675  1.0000
  Ir  Ir8       1.0  0.82888  0.17112  0.56675  1.0000
  Ir  Ir9       1.0  0.34224  0.17112  0.56675  1.0000
  Ir  Ir10      1.0  0.17112  0.82888  0.06675  1.0000
  Ir  Ir11      1.0  0.65776  0.82888  0.06675  1.0000
  Ir  Ir12      1.0  0.17112  0.34224  0.06675  1.0000
