data_image0
_chemical_formula_structural       Mn2N6
_chemical_formula_sum              "Mn2 N6"
_cell_length_a       6.10987
_cell_length_b       6.10987
_cell_length_c       3.71052
_cell_angle_alpha    90
_cell_angle_beta     90
_cell_angle_gamma    120

_space_group_name_H-M_alt    "P 1"
_space_group_IT_number       1

loop_
  _space_group_symop_operation_xyz
  'x, y, z'

loop_
  _atom_site_type_symbol
  _atom_site_label
  _atom_site_symmetry_multiplicity
  _atom_site_fract_x
  _atom_site_fract_y
  _atom_site_fract_z
  _atom_site_occupancy
  Mn  Mn1       1.0  0.33333  0.66667  0.75000  1.0000
  Mn  Mn2       1.0  0.66667  0.33333  0.25000  1.0000
  N   N1        1.0  0.25219  0.50438  0.25000  1.0000
  N   N2        1.0  0.49562  0.74781  0.25000  1.0000
  N   N3        1.0  0.25219  0.74781  0.25000  1.0000
  N   N4        1.0  0.74781  0.49562  0.75000  1.0000
  N   N5        1.0  0.50438  0.25219  0.75000  1.0000
  N   N6        1.0  0.74781  0.25219  0.75000  1.0000
