data_image0
_chemical_formula_structural       Ir6Se16
_chemical_formula_sum              "Ir6 Se16"
_cell_length_a       6.04776
_cell_length_b       6.03993
_cell_length_c       13.5113
_cell_angle_alpha    63.5583
_cell_angle_beta     90
_cell_angle_gamma    90

_space_group_name_H-M_alt    "P 1"
_space_group_IT_number       1

loop_
  _space_group_symop_operation_xyz
  'x, y, z'

loop_
  _atom_site_type_symbol
  _atom_site_label
  _atom_site_symmetry_multiplicity
  _atom_site_fract_x
  _atom_site_fract_y
  _atom_site_fract_z
  _atom_site_occupancy
  Ir  Ir1       1.0  0.48791  0.75890  0.74939  1.0000
  Ir  Ir2       1.0  0.51209  0.24110  0.25061  1.0000
  Ir  Ir3       1.0  0.50000  0.00000  0.00000  1.0000
  Ir  Ir4       1.0  0.98791  0.24110  0.75061  1.0000
  Ir  Ir5       1.0  0.01209  0.75890  0.24939  1.0000
  Ir  Ir6       1.0  0.00000  0.00000  0.50000  1.0000
  Se  Se1       1.0  0.62395  0.68979  0.19115  1.0000
  Se  Se2       1.0  0.61565  0.18961  0.68460  1.0000
  Se  Se3       1.0  0.61575  0.67758  0.93964  1.0000
  Se  Se4       1.0  0.62275  0.17976  0.44093  1.0000
  Se  Se5       1.0  0.87725  0.17976  0.94093  1.0000
  Se  Se6       1.0  0.88435  0.18961  0.18460  1.0000
  Se  Se7       1.0  0.88425  0.67758  0.43964  1.0000
  Se  Se8       1.0  0.87605  0.68979  0.69115  1.0000
  Se  Se9       1.0  0.11565  0.81039  0.81540  1.0000
  Se  Se10      1.0  0.12275  0.82024  0.05907  1.0000
  Se  Se11      1.0  0.11575  0.32242  0.56036  1.0000
  Se  Se12      1.0  0.12395  0.31021  0.30885  1.0000
  Se  Se13      1.0  0.38425  0.32242  0.06036  1.0000
  Se  Se14      1.0  0.37605  0.31021  0.80885  1.0000
  Se  Se15      1.0  0.38435  0.81039  0.31540  1.0000
  Se  Se16      1.0  0.37725  0.82024  0.55907  1.0000
