data_image0
_chemical_formula_structural       F10Mn6
_chemical_formula_sum              "F10 Mn6"
_cell_length_a       6.95324
_cell_length_b       6.95755
_cell_length_c       6.95978
_cell_angle_alpha    131.104
_cell_angle_beta     131.094
_cell_angle_gamma    71.6779

_space_group_name_H-M_alt    "P 1"
_space_group_IT_number       1

loop_
  _space_group_symop_operation_xyz
  'x, y, z'

loop_
  _atom_site_type_symbol
  _atom_site_label
  _atom_site_symmetry_multiplicity
  _atom_site_fract_x
  _atom_site_fract_y
  _atom_site_fract_z
  _atom_site_occupancy
  F   F1        1.0  0.53102  0.66710  0.49808  1.0000
  F   F2        1.0  0.46800  0.33163  0.50000  1.0000
  F   F3        1.0  0.50029  0.49999  0.99997  1.0000
  F   F4        1.0  0.99961  0.99966  0.99953  1.0000
  F   F5        1.0  0.16783  0.03148  0.49892  1.0000
  F   F6        1.0  0.03209  0.53196  0.86364  1.0000
  F   F7        1.0  0.66831  0.16795  0.13604  1.0000
  F   F8        1.0  0.33167  0.83129  0.86354  1.0000
  F   F9        1.0  0.96872  0.46734  0.13606  1.0000
  F   F10       1.0  0.83156  0.96770  0.49947  1.0000
  Mn  Mn1       1.0  0.84337  0.65694  0.50017  1.0000
  Mn  Mn2       1.0  0.65670  0.15681  0.81376  1.0000
  Mn  Mn3       1.0  0.34347  0.84348  0.18665  1.0000
  Mn  Mn4       1.0  0.15658  0.34331  0.50006  1.0000
  Mn  Mn5       1.0  0.25022  0.25207  0.00228  1.0000
  Mn  Mn6       1.0  0.75055  0.75129  0.00185  1.0000
