data_image0
_chemical_formula_structural       I6Mn2
_chemical_formula_sum              "I6 Mn2"
_cell_length_a       11.6643
_cell_length_b       11.6628
_cell_length_c       3.60392
_cell_angle_alpha    90
_cell_angle_beta     90
_cell_angle_gamma    119.997

_space_group_name_H-M_alt    "P 1"
_space_group_IT_number       1

loop_
  _space_group_symop_operation_xyz
  'x, y, z'

loop_
  _atom_site_type_symbol
  _atom_site_label
  _atom_site_symmetry_multiplicity
  _atom_site_fract_x
  _atom_site_fract_y
  _atom_site_fract_z
  _atom_site_occupancy
  I   I1        1.0  0.77352  0.22648  0.75000  1.0000
  I   I2        1.0  0.45304  0.22653  0.75000  1.0000
  I   I3        1.0  0.77351  0.54701  0.75000  1.0000
  I   I4        1.0  0.22649  0.77352  0.25000  1.0000
  I   I5        1.0  0.54697  0.77351  0.25000  1.0000
  I   I6        1.0  0.22647  0.45300  0.25000  1.0000
  Mn  Mn1       1.0  0.66666  0.33329  0.25000  1.0000
  Mn  Mn2       1.0  0.33333  0.66666  0.75000  1.0000
