data_image0
_chemical_formula_structural       Ag10Rh6
_chemical_formula_sum              "Ag10 Rh6"
_cell_length_a       7.6284
_cell_length_b       7.6284
_cell_length_c       7.6284
_cell_angle_alpha    126.149
_cell_angle_beta     126.149
_cell_angle_gamma    79.6437

_space_group_name_H-M_alt    "P 1"
_space_group_IT_number       1

loop_
  _space_group_symop_operation_xyz
  'x, y, z'

loop_
  _atom_site_type_symbol
  _atom_site_label
  _atom_site_symmetry_multiplicity
  _atom_site_fract_x
  _atom_site_fract_y
  _atom_site_fract_z
  _atom_site_occupancy
  Ag  Ag1       1.0  0.49610  0.68054  0.50000  1.0000
  Ag  Ag2       1.0  0.50390  0.31946  0.50000  1.0000
  Ag  Ag3       1.0  0.50000  0.50000  0.00000  1.0000
  Ag  Ag4       1.0  0.00000  0.00000  0.00000  1.0000
  Ag  Ag5       1.0  0.18054  0.99610  0.50000  1.0000
  Ag  Ag6       1.0  0.99610  0.49610  0.81556  1.0000
  Ag  Ag7       1.0  0.68054  0.18054  0.18444  1.0000
  Ag  Ag8       1.0  0.31946  0.81946  0.81556  1.0000
  Ag  Ag9       1.0  0.00390  0.50390  0.18444  1.0000
  Ag  Ag10      1.0  0.81946  0.00390  0.50000  1.0000
  Rh  Rh1       1.0  0.87076  0.62924  0.50000  1.0000
  Rh  Rh2       1.0  0.62924  0.12924  0.75847  1.0000
  Rh  Rh3       1.0  0.37076  0.87076  0.24153  1.0000
  Rh  Rh4       1.0  0.12924  0.37076  0.50000  1.0000
  Rh  Rh5       1.0  0.25000  0.25000  0.00000  1.0000
  Rh  Rh6       1.0  0.75000  0.75000  0.00000  1.0000
