data_image0
_chemical_formula_structural       Ir4Se18
_chemical_formula_sum              "Ir4 Se18"
_cell_length_a       8.5598
_cell_length_b       8.5598
_cell_length_c       8.43372
_cell_angle_alpha    86.8858
_cell_angle_beta     86.8858
_cell_angle_gamma    98.9342

_space_group_name_H-M_alt    "P 1"
_space_group_IT_number       1

loop_
  _space_group_symop_operation_xyz
  'x, y, z'

loop_
  _atom_site_type_symbol
  _atom_site_label
  _atom_site_symmetry_multiplicity
  _atom_site_fract_x
  _atom_site_fract_y
  _atom_site_fract_z
  _atom_site_occupancy
  Ir  Ir1       1.0  0.39386  0.79055  0.07279  1.0000
  Ir  Ir2       1.0  0.20945  0.60614  0.42721  1.0000
  Ir  Ir3       1.0  0.60614  0.20945  0.92721  1.0000
  Ir  Ir4       1.0  0.79055  0.39386  0.57279  1.0000
  Se  Se1       1.0  0.38541  0.74262  0.62445  1.0000
  Se  Se2       1.0  0.25738  0.61459  0.87555  1.0000
  Se  Se3       1.0  0.70895  0.10965  0.66437  1.0000
  Se  Se4       1.0  0.89035  0.29105  0.83563  1.0000
  Se  Se5       1.0  0.29105  0.89035  0.33563  1.0000
  Se  Se6       1.0  0.10965  0.70895  0.16437  1.0000
  Se  Se7       1.0  0.24437  0.35248  0.58585  1.0000
  Se  Se8       1.0  0.64752  0.75563  0.91415  1.0000
  Se  Se9       1.0  0.75563  0.64752  0.41415  1.0000
  Se  Se10      1.0  0.35248  0.24437  0.08585  1.0000
  Se  Se11      1.0  0.03407  0.34147  0.40653  1.0000
  Se  Se12      1.0  0.65853  0.96593  0.09347  1.0000
  Se  Se13      1.0  0.96593  0.65853  0.59347  1.0000
  Se  Se14      1.0  0.34147  0.03407  0.90653  1.0000
  Se  Se15      1.0  0.74262  0.38541  0.12445  1.0000
  Se  Se16      1.0  0.61459  0.25738  0.37555  1.0000
  Se  Se17      1.0  0.44131  0.55869  0.25000  1.0000
  Se  Se18      1.0  0.55869  0.44131  0.75000  1.0000
