data_image0
_chemical_formula_structural       Mn6I6
_chemical_formula_sum              "Mn6 I6"
_cell_length_a       4.46935
_cell_length_b       4.46935
_cell_length_c       23.926
_cell_angle_alpha    90
_cell_angle_beta     90
_cell_angle_gamma    120.205

_space_group_name_H-M_alt    "P 1"
_space_group_IT_number       1

loop_
  _space_group_symop_operation_xyz
  'x, y, z'

loop_
  _atom_site_type_symbol
  _atom_site_label
  _atom_site_symmetry_multiplicity
  _atom_site_fract_x
  _atom_site_fract_y
  _atom_site_fract_z
  _atom_site_occupancy
  Mn  Mn1       1.0  0.39254  0.60746  0.14723  1.0000
  Mn  Mn2       1.0  0.60746  0.39254  0.85277  1.0000
  Mn  Mn3       1.0  0.60746  0.39254  0.64723  1.0000
  Mn  Mn4       1.0  0.39254  0.60746  0.35277  1.0000
  Mn  Mn5       1.0  0.45116  0.54884  0.75000  1.0000
  Mn  Mn6       1.0  0.54884  0.45116  0.25000  1.0000
  I   I1        1.0  0.78216  0.21784  0.75000  1.0000
  I   I2        1.0  0.21784  0.78216  0.25000  1.0000
  I   I3        1.0  0.95723  0.04277  0.59643  1.0000
  I   I4        1.0  0.04277  0.95723  0.09643  1.0000
  I   I5        1.0  0.95723  0.04277  0.90357  1.0000
  I   I6        1.0  0.04277  0.95723  0.40357  1.0000
