data_image0
_chemical_formula_structural       Ir4Se8
_chemical_formula_sum              "Ir4 Se8"
_cell_length_a       8.43824
_cell_length_b       8.43824
_cell_length_c       12.1999
_cell_angle_alpha    41.8194
_cell_angle_beta     41.8194
_cell_angle_gamma    26.0903

_space_group_name_H-M_alt    "P 1"
_space_group_IT_number       1

loop_
  _space_group_symop_operation_xyz
  'x, y, z'

loop_
  _atom_site_type_symbol
  _atom_site_label
  _atom_site_symmetry_multiplicity
  _atom_site_fract_x
  _atom_site_fract_y
  _atom_site_fract_z
  _atom_site_occupancy
  Ir  Ir1       1.0  0.75369  0.75369  0.85874  1.0000
  Ir  Ir2       1.0  0.24631  0.24631  0.14126  1.0000
  Ir  Ir3       1.0  0.38499  0.38499  0.43238  1.0000
  Ir  Ir4       1.0  0.61501  0.61501  0.56762  1.0000
  Se  Se1       1.0  0.12374  0.12374  0.93368  1.0000
  Se  Se2       1.0  0.87626  0.87626  0.06632  1.0000
  Se  Se3       1.0  0.88993  0.88993  0.55880  1.0000
  Se  Se4       1.0  0.11007  0.11007  0.44120  1.0000
  Se  Se5       1.0  0.62830  0.62830  0.16922  1.0000
  Se  Se6       1.0  0.37170  0.37170  0.83078  1.0000
  Se  Se7       1.0  0.14686  0.14686  0.67004  1.0000
  Se  Se8       1.0  0.85314  0.85314  0.32996  1.0000
