data_image0
_chemical_formula_structural       Ir4Se12
_chemical_formula_sum              "Ir4 Se12"
_cell_length_a       7.27595
_cell_length_b       7.27595
_cell_length_c       7.87813
_cell_angle_alpha    90
_cell_angle_beta     90
_cell_angle_gamma    106.509

_space_group_name_H-M_alt    "P 1"
_space_group_IT_number       1

loop_
  _space_group_symop_operation_xyz
  'x, y, z'

loop_
  _atom_site_type_symbol
  _atom_site_label
  _atom_site_symmetry_multiplicity
  _atom_site_fract_x
  _atom_site_fract_y
  _atom_site_fract_z
  _atom_site_occupancy
  Ir  Ir1       1.0  0.66534  0.33466  0.00000  1.0000
  Ir  Ir2       1.0  0.33466  0.66534  0.00000  1.0000
  Ir  Ir3       1.0  0.16534  0.83466  0.50000  1.0000
  Ir  Ir4       1.0  0.83466  0.16534  0.50000  1.0000
  Se  Se1       1.0  0.61854  0.61854  0.86907  1.0000
  Se  Se2       1.0  0.11854  0.11854  0.63093  1.0000
  Se  Se3       1.0  0.88146  0.88146  0.36907  1.0000
  Se  Se4       1.0  0.37022  0.62978  0.50000  1.0000
  Se  Se5       1.0  0.11127  0.61127  0.75000  1.0000
  Se  Se6       1.0  0.87022  0.12978  0.00000  1.0000
  Se  Se7       1.0  0.88873  0.38873  0.25000  1.0000
  Se  Se8       1.0  0.38146  0.38146  0.13093  1.0000
  Se  Se9       1.0  0.62978  0.37022  0.50000  1.0000
  Se  Se10      1.0  0.12978  0.87022  0.00000  1.0000
  Se  Se11      1.0  0.38873  0.88873  0.25000  1.0000
  Se  Se12      1.0  0.61127  0.11127  0.75000  1.0000
