data_image0
_chemical_formula_structural       Mn8N16
_chemical_formula_sum              "Mn8 N16"
_cell_length_a       5.02443
_cell_length_b       8.11429
_cell_length_c       6.40885
_cell_angle_alpha    90
_cell_angle_beta     90
_cell_angle_gamma    90

_space_group_name_H-M_alt    "P 1"
_space_group_IT_number       1

loop_
  _space_group_symop_operation_xyz
  'x, y, z'

loop_
  _atom_site_type_symbol
  _atom_site_label
  _atom_site_symmetry_multiplicity
  _atom_site_fract_x
  _atom_site_fract_y
  _atom_site_fract_z
  _atom_site_occupancy
  Mn  Mn1       1.0  0.66363  0.92074  0.09379  1.0000
  Mn  Mn2       1.0  0.83637  0.57926  0.59379  1.0000
  Mn  Mn3       1.0  0.83637  0.42074  0.90621  1.0000
  Mn  Mn4       1.0  0.66363  0.07926  0.40621  1.0000
  Mn  Mn5       1.0  0.33637  0.07926  0.90621  1.0000
  Mn  Mn6       1.0  0.16363  0.42074  0.40621  1.0000
  Mn  Mn7       1.0  0.16363  0.57926  0.09379  1.0000
  Mn  Mn8       1.0  0.33637  0.92074  0.59379  1.0000
  N   N1        1.0  0.47630  0.50000  0.25000  1.0000
  N   N2        1.0  0.02370  0.00000  0.75000  1.0000
  N   N3        1.0  0.52370  0.50000  0.75000  1.0000
  N   N4        1.0  0.97630  0.00000  0.25000  1.0000
  N   N5        1.0  0.51779  0.86973  0.36063  1.0000
  N   N6        1.0  0.98221  0.63027  0.86063  1.0000
  N   N7        1.0  0.98221  0.36973  0.63937  1.0000
  N   N8        1.0  0.51779  0.13027  0.13937  1.0000
  N   N9        1.0  0.48221  0.13027  0.63937  1.0000
  N   N10       1.0  0.01779  0.36973  0.13937  1.0000
  N   N11       1.0  0.01779  0.63027  0.36063  1.0000
  N   N12       1.0  0.48221  0.86973  0.86063  1.0000
  N   N13       1.0  0.50000  0.50000  0.00000  1.0000
  N   N14       1.0  0.00000  0.00000  0.50000  1.0000
  N   N15       1.0  0.00000  0.00000  0.00000  1.0000
  N   N16       1.0  0.50000  0.50000  0.50000  1.0000
