data_image0
_chemical_formula_structural       Rh4Ag12
_chemical_formula_sum              "Rh4 Ag12"
_cell_length_a       8.67338
_cell_length_b       8.67338
_cell_length_c       5.76038
_cell_angle_alpha    90
_cell_angle_beta     90
_cell_angle_gamma    141.199

_space_group_name_H-M_alt    "P 1"
_space_group_IT_number       1

loop_
  _space_group_symop_operation_xyz
  'x, y, z'

loop_
  _atom_site_type_symbol
  _atom_site_label
  _atom_site_symmetry_multiplicity
  _atom_site_fract_x
  _atom_site_fract_y
  _atom_site_fract_z
  _atom_site_occupancy
  Rh  Rh1       1.0  0.62594  0.37406  0.00000  1.0000
  Rh  Rh2       1.0  0.37406  0.62594  0.00000  1.0000
  Rh  Rh3       1.0  0.12594  0.87406  0.50000  1.0000
  Rh  Rh4       1.0  0.87406  0.12594  0.50000  1.0000
  Ag  Ag1       1.0  0.74984  0.74984  0.25024  1.0000
  Ag  Ag2       1.0  0.24984  0.24984  0.24976  1.0000
  Ag  Ag3       1.0  0.75016  0.75016  0.75024  1.0000
  Ag  Ag4       1.0  0.37483  0.62517  0.50000  1.0000
  Ag  Ag5       1.0  0.99918  0.49918  0.75000  1.0000
  Ag  Ag6       1.0  0.87483  0.12517  0.00000  1.0000
  Ag  Ag7       1.0  0.00082  0.50082  0.25000  1.0000
  Ag  Ag8       1.0  0.25016  0.25016  0.74976  1.0000
  Ag  Ag9       1.0  0.62517  0.37483  0.50000  1.0000
  Ag  Ag10      1.0  0.12517  0.87483  0.00000  1.0000
  Ag  Ag11      1.0  0.50082  0.00082  0.25000  1.0000
  Ag  Ag12      1.0  0.49918  0.99918  0.75000  1.0000
