data_image0
_chemical_formula_structural       IrSe4
_chemical_formula_sum              "Ir1 Se4"
_cell_length_a       6.8602
_cell_length_b       6.8602
_cell_length_c       6.8602
_cell_angle_alpha    93.5557
_cell_angle_beta     93.5557
_cell_angle_gamma    151.159

_space_group_name_H-M_alt    "P 1"
_space_group_IT_number       1

loop_
  _space_group_symop_operation_xyz
  'x, y, z'

loop_
  _atom_site_type_symbol
  _atom_site_label
  _atom_site_symmetry_multiplicity
  _atom_site_fract_x
  _atom_site_fract_y
  _atom_site_fract_z
  _atom_site_occupancy
  Ir  Ir1       1.0  0.00000  0.00000  0.00000  1.0000
  Se  Se1       1.0  0.60304  0.32126  0.92429  1.0000
  Se  Se2       1.0  0.39696  0.67874  0.07571  1.0000
  Se  Se3       1.0  0.67874  0.60304  0.28178  1.0000
  Se  Se4       1.0  0.32126  0.39696  0.71822  1.0000
