data_image0
_chemical_formula_structural       Ir6Se20
_chemical_formula_sum              "Ir6 Se20"
_cell_length_a       13.9768
_cell_length_b       13.9768
_cell_length_c       3.69727
_cell_angle_alpha    90
_cell_angle_beta     90
_cell_angle_gamma    120

_space_group_name_H-M_alt    "P 1"
_space_group_IT_number       1

loop_
  _space_group_symop_operation_xyz
  'x, y, z'

loop_
  _atom_site_type_symbol
  _atom_site_label
  _atom_site_symmetry_multiplicity
  _atom_site_fract_x
  _atom_site_fract_y
  _atom_site_fract_z
  _atom_site_occupancy
  Ir  Ir1       1.0  0.68908  0.77240  0.25000  1.0000
  Ir  Ir2       1.0  0.22760  0.91668  0.25000  1.0000
  Ir  Ir3       1.0  0.08332  0.31092  0.25000  1.0000
  Ir  Ir4       1.0  0.31092  0.22760  0.75000  1.0000
  Ir  Ir5       1.0  0.77240  0.08332  0.75000  1.0000
  Ir  Ir6       1.0  0.91668  0.68908  0.75000  1.0000
  Se  Se1       1.0  0.90916  0.12472  0.25000  1.0000
  Se  Se2       1.0  0.87528  0.78444  0.25000  1.0000
  Se  Se3       1.0  0.21556  0.09084  0.25000  1.0000
  Se  Se4       1.0  0.09084  0.87528  0.75000  1.0000
  Se  Se5       1.0  0.12472  0.21556  0.75000  1.0000
  Se  Se6       1.0  0.78444  0.90916  0.75000  1.0000
  Se  Se7       1.0  0.63147  0.01174  0.25000  1.0000
  Se  Se8       1.0  0.98826  0.61973  0.25000  1.0000
  Se  Se9       1.0  0.38027  0.36853  0.25000  1.0000
  Se  Se10      1.0  0.36853  0.98826  0.75000  1.0000
  Se  Se11      1.0  0.01174  0.38027  0.75000  1.0000
  Se  Se12      1.0  0.61973  0.63147  0.75000  1.0000
  Se  Se13      1.0  0.72084  0.20785  0.25000  1.0000
  Se  Se14      1.0  0.79215  0.51300  0.25000  1.0000
  Se  Se15      1.0  0.48700  0.27916  0.25000  1.0000
  Se  Se16      1.0  0.27916  0.79215  0.75000  1.0000
  Se  Se17      1.0  0.20785  0.48700  0.75000  1.0000
  Se  Se18      1.0  0.51300  0.72084  0.75000  1.0000
  Se  Se19      1.0  0.66667  0.33333  0.75000  1.0000
  Se  Se20      1.0  0.33333  0.66667  0.25000  1.0000
