data_image0
_chemical_formula_structural       Mn8Ag12
_chemical_formula_sum              "Mn8 Ag12"
_cell_length_a       2.85073
_cell_length_b       8.86681
_cell_length_c       13.5798
_cell_angle_alpha    90
_cell_angle_beta     90
_cell_angle_gamma    90

_space_group_name_H-M_alt    "P 1"
_space_group_IT_number       1

loop_
  _space_group_symop_operation_xyz
  'x, y, z'

loop_
  _atom_site_type_symbol
  _atom_site_label
  _atom_site_symmetry_multiplicity
  _atom_site_fract_x
  _atom_site_fract_y
  _atom_site_fract_z
  _atom_site_occupancy
  Mn  Mn1       1.0  0.25000  0.86572  0.85093  1.0000
  Mn  Mn2       1.0  0.75000  0.13428  0.14907  1.0000
  Mn  Mn3       1.0  0.75000  0.36572  0.64907  1.0000
  Mn  Mn4       1.0  0.25000  0.63428  0.35093  1.0000
  Mn  Mn5       1.0  0.25000  0.13548  0.54806  1.0000
  Mn  Mn6       1.0  0.75000  0.86452  0.45194  1.0000
  Mn  Mn7       1.0  0.75000  0.63548  0.95194  1.0000
  Mn  Mn8       1.0  0.25000  0.36452  0.04806  1.0000
  Ag  Ag1       1.0  0.25000  0.13540  0.74995  1.0000
  Ag  Ag2       1.0  0.75000  0.86460  0.25005  1.0000
  Ag  Ag3       1.0  0.75000  0.63540  0.75005  1.0000
  Ag  Ag4       1.0  0.25000  0.36460  0.24995  1.0000
  Ag  Ag5       1.0  0.25000  0.09744  0.35170  1.0000
  Ag  Ag6       1.0  0.75000  0.90256  0.64830  1.0000
  Ag  Ag7       1.0  0.75000  0.59744  0.14830  1.0000
  Ag  Ag8       1.0  0.25000  0.40256  0.85170  1.0000
  Ag  Ag9       1.0  0.25000  0.87525  0.05607  1.0000
  Ag  Ag10      1.0  0.75000  0.12475  0.94393  1.0000
  Ag  Ag11      1.0  0.75000  0.37525  0.44393  1.0000
  Ag  Ag12      1.0  0.25000  0.62475  0.55607  1.0000
