data_image0
_chemical_formula_structural       Se8Ir4
_chemical_formula_sum              "Se8 Ir4"
_cell_length_a       8.70368
_cell_length_b       4.35496
_cell_length_c       7.54535
_cell_angle_alpha    54.6699
_cell_angle_beta     90
_cell_angle_gamma    90

_space_group_name_H-M_alt    "P 1"
_space_group_IT_number       1

loop_
  _space_group_symop_operation_xyz
  'x, y, z'

loop_
  _atom_site_type_symbol
  _atom_site_label
  _atom_site_symmetry_multiplicity
  _atom_site_fract_x
  _atom_site_fract_y
  _atom_site_fract_z
  _atom_site_occupancy
  Se  Se1       1.0  0.37418  0.26317  0.26471  1.0000
  Se  Se2       1.0  0.62582  0.26317  0.76471  1.0000
  Se  Se3       1.0  0.37591  0.76216  0.76513  1.0000
  Se  Se4       1.0  0.87402  0.26544  0.26257  1.0000
  Se  Se5       1.0  0.62409  0.76216  0.26513  1.0000
  Se  Se6       1.0  0.12598  0.26544  0.76257  1.0000
  Se  Se7       1.0  0.87566  0.76478  0.76309  1.0000
  Se  Se8       1.0  0.12434  0.76478  0.26309  1.0000
  Ir  Ir1       1.0  0.37551  0.01301  0.01458  1.0000
  Ir  Ir2       1.0  0.62449  0.01301  0.51458  1.0000
  Ir  Ir3       1.0  0.87521  0.01473  0.01323  1.0000
  Ir  Ir4       1.0  0.12479  0.01473  0.51323  1.0000
