data_image0
_chemical_formula_structural       Br8Mn12
_chemical_formula_sum              "Br8 Mn12"
_cell_length_a       5.90476
_cell_length_b       5.90477
_cell_length_c       13.4623
_cell_angle_alpha    89.939
_cell_angle_beta     90.0593
_cell_angle_gamma    119.996

_space_group_name_H-M_alt    "P 1"
_space_group_IT_number       1

loop_
  _space_group_symop_operation_xyz
  'x, y, z'

loop_
  _atom_site_type_symbol
  _atom_site_label
  _atom_site_symmetry_multiplicity
  _atom_site_fract_x
  _atom_site_fract_y
  _atom_site_fract_z
  _atom_site_occupancy
  Br  Br1       1.0  0.00003  0.99996  0.24987  1.0000
  Br  Br2       1.0  0.99998  0.00003  0.75007  1.0000
  Br  Br3       1.0  0.33340  0.66661  0.24992  1.0000
  Br  Br4       1.0  0.66670  0.33330  0.74997  1.0000
  Br  Br5       1.0  0.33324  0.66677  0.59317  1.0000
  Br  Br6       1.0  0.66659  0.33342  0.09302  1.0000
  Br  Br7       1.0  0.66676  0.33321  0.40713  1.0000
  Br  Br8       1.0  0.33344  0.66657  0.90692  1.0000
  Mn  Mn1       1.0  0.15867  0.31758  0.41930  1.0000
  Mn  Mn2       1.0  0.15865  0.84133  0.41941  1.0000
  Mn  Mn3       1.0  0.68243  0.84131  0.41932  1.0000
  Mn  Mn4       1.0  0.84109  0.15893  0.91941  1.0000
  Mn  Mn5       1.0  0.31759  0.15882  0.91937  1.0000
  Mn  Mn6       1.0  0.84118  0.68240  0.91938  1.0000
  Mn  Mn7       1.0  0.84120  0.68236  0.58075  1.0000
  Mn  Mn8       1.0  0.84127  0.15871  0.58068  1.0000
  Mn  Mn9       1.0  0.31763  0.15879  0.58075  1.0000
  Mn  Mn10      1.0  0.15887  0.84116  0.08056  1.0000
  Mn  Mn11      1.0  0.68237  0.84111  0.08051  1.0000
  Mn  Mn12      1.0  0.15890  0.31762  0.08050  1.0000
