data_image0
_chemical_formula_structural       RhAg5
_chemical_formula_sum              "Rh1 Ag5"
_cell_length_a       5.57286
_cell_length_b       5.57286
_cell_length_c       5.57286
_cell_angle_alpha    53.5547
_cell_angle_beta     53.5547
_cell_angle_gamma    53.5547

_space_group_name_H-M_alt    "P 1"
_space_group_IT_number       1

loop_
  _space_group_symop_operation_xyz
  'x, y, z'

loop_
  _atom_site_type_symbol
  _atom_site_label
  _atom_site_symmetry_multiplicity
  _atom_site_fract_x
  _atom_site_fract_y
  _atom_site_fract_z
  _atom_site_occupancy
  Rh  Rh1       1.0  0.00000  0.00000  0.00000  1.0000
  Ag  Ag1       1.0  0.66635  0.66635  0.66635  1.0000
  Ag  Ag2       1.0  0.16356  0.50000  0.83644  1.0000
  Ag  Ag3       1.0  0.50000  0.83644  0.16356  1.0000
  Ag  Ag4       1.0  0.83644  0.16356  0.50000  1.0000
  Ag  Ag5       1.0  0.33365  0.33365  0.33365  1.0000
