data_image0
_chemical_formula_structural       Ir6Tl16
_chemical_formula_sum              "Ir6 Tl16"
_cell_length_a       6.74837
_cell_length_b       6.76255
_cell_length_c       15.0434
_cell_angle_alpha    65.8121
_cell_angle_beta     90
_cell_angle_gamma    90

_space_group_name_H-M_alt    "P 1"
_space_group_IT_number       1

loop_
  _space_group_symop_operation_xyz
  'x, y, z'

loop_
  _atom_site_type_symbol
  _atom_site_label
  _atom_site_symmetry_multiplicity
  _atom_site_fract_x
  _atom_site_fract_y
  _atom_site_fract_z
  _atom_site_occupancy
  Ir  Ir1       1.0  0.49361  0.72756  0.75345  1.0000
  Ir  Ir2       1.0  0.50639  0.27244  0.24655  1.0000
  Ir  Ir3       1.0  0.50000  0.00000  0.00000  1.0000
  Ir  Ir4       1.0  0.99361  0.27244  0.74655  1.0000
  Ir  Ir5       1.0  0.00639  0.72756  0.25345  1.0000
  Ir  Ir6       1.0  0.00000  0.00000  0.50000  1.0000
  Tl  Tl1       1.0  0.67184  0.67663  0.16090  1.0000
  Tl  Tl2       1.0  0.66613  0.13950  0.67635  1.0000
  Tl  Tl3       1.0  0.66571  0.74581  0.91605  1.0000
  Tl  Tl4       1.0  0.68042  0.26106  0.41366  1.0000
  Tl  Tl5       1.0  0.81958  0.26106  0.91366  1.0000
  Tl  Tl6       1.0  0.83387  0.13950  0.17635  1.0000
  Tl  Tl7       1.0  0.83429  0.74581  0.41605  1.0000
  Tl  Tl8       1.0  0.82816  0.67663  0.66090  1.0000
  Tl  Tl9       1.0  0.16613  0.86050  0.82365  1.0000
  Tl  Tl10      1.0  0.18042  0.73894  0.08634  1.0000
  Tl  Tl11      1.0  0.16571  0.25419  0.58395  1.0000
  Tl  Tl12      1.0  0.17184  0.32337  0.33910  1.0000
  Tl  Tl13      1.0  0.33429  0.25419  0.08395  1.0000
  Tl  Tl14      1.0  0.32816  0.32337  0.83910  1.0000
  Tl  Tl15      1.0  0.33387  0.86050  0.32365  1.0000
  Tl  Tl16      1.0  0.31958  0.73894  0.58634  1.0000
