data_image0
_chemical_formula_structural       IrTl4
_chemical_formula_sum              "Ir1 Tl4"
_cell_length_a       6.68694
_cell_length_b       6.68694
_cell_length_c       6.68694
_cell_angle_alpha    93.2675
_cell_angle_beta     93.2675
_cell_angle_gamma    152.375

_space_group_name_H-M_alt    "P 1"
_space_group_IT_number       1

loop_
  _space_group_symop_operation_xyz
  'x, y, z'

loop_
  _atom_site_type_symbol
  _atom_site_label
  _atom_site_symmetry_multiplicity
  _atom_site_fract_x
  _atom_site_fract_y
  _atom_site_fract_z
  _atom_site_occupancy
  Ir  Ir1       1.0  0.00000  0.00000  0.00000  1.0000
  Tl  Tl1       1.0  0.57243  0.76007  0.33250  1.0000
  Tl  Tl2       1.0  0.42757  0.23993  0.66750  1.0000
  Tl  Tl3       1.0  0.23993  0.57243  0.81236  1.0000
  Tl  Tl4       1.0  0.76007  0.42757  0.18764  1.0000
