data_image0
_chemical_formula_structural       Ir8Se12
_chemical_formula_sum              "Ir8 Se12"
_cell_length_a       3.64208
_cell_length_b       9.18119
_cell_length_c       14.6042
_cell_angle_alpha    90
_cell_angle_beta     90
_cell_angle_gamma    90

_space_group_name_H-M_alt    "P 1"
_space_group_IT_number       1

loop_
  _space_group_symop_operation_xyz
  'x, y, z'

loop_
  _atom_site_type_symbol
  _atom_site_label
  _atom_site_symmetry_multiplicity
  _atom_site_fract_x
  _atom_site_fract_y
  _atom_site_fract_z
  _atom_site_occupancy
  Ir  Ir1       1.0  0.25000  0.99802  0.88897  1.0000
  Ir  Ir2       1.0  0.75000  0.00198  0.11103  1.0000
  Ir  Ir3       1.0  0.75000  0.49802  0.61103  1.0000
  Ir  Ir4       1.0  0.25000  0.50198  0.38897  1.0000
  Ir  Ir5       1.0  0.25000  0.16813  0.53005  1.0000
  Ir  Ir6       1.0  0.75000  0.83187  0.46995  1.0000
  Ir  Ir7       1.0  0.75000  0.66813  0.96995  1.0000
  Ir  Ir8       1.0  0.25000  0.33187  0.03005  1.0000
  Se  Se1       1.0  0.25000  0.34553  0.66836  1.0000
  Se  Se2       1.0  0.75000  0.65447  0.33164  1.0000
  Se  Se3       1.0  0.75000  0.84553  0.83164  1.0000
  Se  Se4       1.0  0.25000  0.15447  0.16836  1.0000
  Se  Se5       1.0  0.25000  0.98220  0.40616  1.0000
  Se  Se6       1.0  0.75000  0.01780  0.59384  1.0000
  Se  Se7       1.0  0.75000  0.48220  0.09384  1.0000
  Se  Se8       1.0  0.25000  0.51780  0.90616  1.0000
  Se  Se9       1.0  0.25000  0.84869  0.02811  1.0000
  Se  Se10      1.0  0.75000  0.15131  0.97189  1.0000
  Se  Se11      1.0  0.75000  0.34869  0.47189  1.0000
  Se  Se12      1.0  0.25000  0.65131  0.52811  1.0000
