data_image0
_chemical_formula_structural       Tl9Ir13
_chemical_formula_sum              "Tl9 Ir13"
_cell_length_a       9.04966
_cell_length_b       9.04966
_cell_length_c       5.68554
_cell_angle_alpha    90
_cell_angle_beta     90
_cell_angle_gamma    120

_space_group_name_H-M_alt    "P 1"
_space_group_IT_number       1

loop_
  _space_group_symop_operation_xyz
  'x, y, z'

loop_
  _atom_site_type_symbol
  _atom_site_label
  _atom_site_symmetry_multiplicity
  _atom_site_fract_x
  _atom_site_fract_y
  _atom_site_fract_z
  _atom_site_occupancy
  Tl  Tl1       1.0  0.00000  0.00000  0.50000  1.0000
  Tl  Tl2       1.0  0.33333  0.66667  0.74748  1.0000
  Tl  Tl3       1.0  0.66667  0.33333  0.25252  1.0000
  Tl  Tl4       1.0  0.19329  0.80671  0.25702  1.0000
  Tl  Tl5       1.0  0.19329  0.38659  0.25702  1.0000
  Tl  Tl6       1.0  0.61341  0.80671  0.25702  1.0000
  Tl  Tl7       1.0  0.38659  0.19329  0.74298  1.0000
  Tl  Tl8       1.0  0.80671  0.61341  0.74298  1.0000
  Tl  Tl9       1.0  0.80671  0.19329  0.74298  1.0000
  Ir  Ir1       1.0  0.00000  0.00000  0.00000  1.0000
  Ir  Ir2       1.0  0.50000  0.00000  0.00000  1.0000
  Ir  Ir3       1.0  0.00000  0.50000  0.00000  1.0000
  Ir  Ir4       1.0  0.50000  0.50000  0.00000  1.0000
  Ir  Ir5       1.0  0.50000  0.00000  0.50000  1.0000
  Ir  Ir6       1.0  0.00000  0.50000  0.50000  1.0000
  Ir  Ir7       1.0  0.50000  0.50000  0.50000  1.0000
  Ir  Ir8       1.0  0.16187  0.83813  0.76535  1.0000
  Ir  Ir9       1.0  0.16187  0.32375  0.76535  1.0000
  Ir  Ir10      1.0  0.67625  0.83813  0.76535  1.0000
  Ir  Ir11      1.0  0.32375  0.16187  0.23465  1.0000
  Ir  Ir12      1.0  0.83813  0.67625  0.23465  1.0000
  Ir  Ir13      1.0  0.83813  0.16187  0.23465  1.0000
