data_image0
_chemical_formula_structural       Ir4Se8
_chemical_formula_sum              "Ir4 Se8"
_cell_length_a       10.7495
_cell_length_b       10.7495
_cell_length_c       6.60123
_cell_angle_alpha    90
_cell_angle_beta     90
_cell_angle_gamma    159.561

_space_group_name_H-M_alt    "P 1"
_space_group_IT_number       1

loop_
  _space_group_symop_operation_xyz
  'x, y, z'

loop_
  _atom_site_type_symbol
  _atom_site_label
  _atom_site_symmetry_multiplicity
  _atom_site_fract_x
  _atom_site_fract_y
  _atom_site_fract_z
  _atom_site_occupancy
  Ir  Ir1       1.0  0.63049  0.36951  0.78109  1.0000
  Ir  Ir2       1.0  0.36951  0.63049  0.28109  1.0000
  Ir  Ir3       1.0  0.13055  0.86945  0.28111  1.0000
  Ir  Ir4       1.0  0.86945  0.13055  0.78111  1.0000
  Se  Se1       1.0  0.92999  0.07001  0.11444  1.0000
  Se  Se2       1.0  0.07001  0.92999  0.61444  1.0000
  Se  Se3       1.0  0.18439  0.81561  0.94705  1.0000
  Se  Se4       1.0  0.81561  0.18439  0.44705  1.0000
  Se  Se5       1.0  0.31556  0.68444  0.94695  1.0000
  Se  Se6       1.0  0.68444  0.31556  0.44695  1.0000
  Se  Se7       1.0  0.57006  0.42994  0.11506  1.0000
  Se  Se8       1.0  0.42994  0.57006  0.61506  1.0000
