data_image0
_chemical_formula_structural       Mn2I8
_chemical_formula_sum              "Mn2 I8"
_cell_length_a       7.56669
_cell_length_b       7.56669
_cell_length_c       7.31794
_cell_angle_alpha    90
_cell_angle_beta     90
_cell_angle_gamma    90

_space_group_name_H-M_alt    "P 1"
_space_group_IT_number       1

loop_
  _space_group_symop_operation_xyz
  'x, y, z'

loop_
  _atom_site_type_symbol
  _atom_site_label
  _atom_site_symmetry_multiplicity
  _atom_site_fract_x
  _atom_site_fract_y
  _atom_site_fract_z
  _atom_site_occupancy
  Mn  Mn1       1.0  0.00000  0.00000  0.75000  1.0000
  Mn  Mn2       1.0  0.00000  0.00000  0.25000  1.0000
  I   I1        1.0  0.30192  0.11208  0.50000  1.0000
  I   I2        1.0  0.69808  0.88792  0.50000  1.0000
  I   I3        1.0  0.30192  0.88792  0.00000  1.0000
  I   I4        1.0  0.69808  0.11208  0.00000  1.0000
  I   I5        1.0  0.11208  0.69808  0.50000  1.0000
  I   I6        1.0  0.88792  0.30192  0.50000  1.0000
  I   I7        1.0  0.88792  0.69808  0.00000  1.0000
  I   I8        1.0  0.11208  0.30192  0.00000  1.0000
