data_image0
_chemical_formula_structural       Se4Ir4
_chemical_formula_sum              "Se4 Ir4"
_cell_length_a       5.1721
_cell_length_b       5.1721
_cell_length_c       5.1721
_cell_angle_alpha    90
_cell_angle_beta     90
_cell_angle_gamma    90

_space_group_name_H-M_alt    "P 1"
_space_group_IT_number       1

loop_
  _space_group_symop_operation_xyz
  'x, y, z'

loop_
  _atom_site_type_symbol
  _atom_site_label
  _atom_site_symmetry_multiplicity
  _atom_site_fract_x
  _atom_site_fract_y
  _atom_site_fract_z
  _atom_site_occupancy
  Se  Se1       1.0  0.79545  0.70455  0.29545  1.0000
  Se  Se2       1.0  0.70455  0.29545  0.79545  1.0000
  Se  Se3       1.0  0.29545  0.79545  0.70455  1.0000
  Se  Se4       1.0  0.20455  0.20455  0.20455  1.0000
  Ir  Ir1       1.0  0.17099  0.32901  0.67099  1.0000
  Ir  Ir2       1.0  0.32901  0.67099  0.17099  1.0000
  Ir  Ir3       1.0  0.67099  0.17099  0.32901  1.0000
  Ir  Ir4       1.0  0.82901  0.82901  0.82901  1.0000
