data_image0
_chemical_formula_structural       MnBr4
_chemical_formula_sum              "Mn1 Br4"
_cell_length_a       7.5424
_cell_length_b       7.5424
_cell_length_c       7.5424
_cell_angle_alpha    92.2383
_cell_angle_beta     92.2383
_cell_angle_gamma    157.204

_space_group_name_H-M_alt    "P 1"
_space_group_IT_number       1

loop_
  _space_group_symop_operation_xyz
  'x, y, z'

loop_
  _atom_site_type_symbol
  _atom_site_label
  _atom_site_symmetry_multiplicity
  _atom_site_fract_x
  _atom_site_fract_y
  _atom_site_fract_z
  _atom_site_occupancy
  Mn  Mn1       1.0  0.00000  0.00000  0.00000  1.0000
  Br  Br1       1.0  0.54977  0.72246  0.27223  1.0000
  Br  Br2       1.0  0.45023  0.27754  0.72777  1.0000
  Br  Br3       1.0  0.27754  0.54977  0.82732  1.0000
  Br  Br4       1.0  0.72246  0.45023  0.17268  1.0000
