data_image0
_chemical_formula_structural       Mn6F6
_chemical_formula_sum              "Mn6 F6"
_cell_length_a       3.4189
_cell_length_b       3.4189
_cell_length_c       20.11
_cell_angle_alpha    90
_cell_angle_beta     90
_cell_angle_gamma    118.843

_space_group_name_H-M_alt    "P 1"
_space_group_IT_number       1

loop_
  _space_group_symop_operation_xyz
  'x, y, z'

loop_
  _atom_site_type_symbol
  _atom_site_label
  _atom_site_symmetry_multiplicity
  _atom_site_fract_x
  _atom_site_fract_y
  _atom_site_fract_z
  _atom_site_occupancy
  Mn  Mn1       1.0  0.33960  0.66040  0.12036  1.0000
  Mn  Mn2       1.0  0.66040  0.33960  0.87964  1.0000
  Mn  Mn3       1.0  0.66040  0.33960  0.62036  1.0000
  Mn  Mn4       1.0  0.33960  0.66040  0.37964  1.0000
  Mn  Mn5       1.0  0.35183  0.64817  0.75000  1.0000
  Mn  Mn6       1.0  0.64817  0.35183  0.25000  1.0000
  F   F1        1.0  0.69102  0.30898  0.75000  1.0000
  F   F2        1.0  0.30898  0.69102  0.25000  1.0000
  F   F3        1.0  0.99839  0.00161  0.57629  1.0000
  F   F4        1.0  0.00161  0.99839  0.07629  1.0000
  F   F5        1.0  0.99839  0.00161  0.92371  1.0000
  F   F6        1.0  0.00161  0.99839  0.42371  1.0000
