data_image0
_chemical_formula_structural       Mn4F8
_chemical_formula_sum              "Mn4 F8"
_cell_length_a       5.30904
_cell_length_b       5.29799
_cell_length_c       5.29386
_cell_angle_alpha    90
_cell_angle_beta     90
_cell_angle_gamma    90

_space_group_name_H-M_alt    "P 1"
_space_group_IT_number       1

loop_
  _space_group_symop_operation_xyz
  'x, y, z'

loop_
  _atom_site_type_symbol
  _atom_site_label
  _atom_site_symmetry_multiplicity
  _atom_site_fract_x
  _atom_site_fract_y
  _atom_site_fract_z
  _atom_site_occupancy
  Mn  Mn1       1.0  0.50000  0.00000  0.50000  1.0000
  Mn  Mn2       1.0  0.00000  0.50000  0.50000  1.0000
  Mn  Mn3       1.0  0.50000  0.50000  0.00000  1.0000
  Mn  Mn4       1.0  0.00000  0.00000  0.00000  1.0000
  F   F1        1.0  0.66187  0.16168  0.16324  1.0000
  F   F2        1.0  0.16187  0.33832  0.83676  1.0000
  F   F3        1.0  0.33813  0.66168  0.33676  1.0000
  F   F4        1.0  0.83813  0.83832  0.66324  1.0000
  F   F5        1.0  0.16187  0.16168  0.33676  1.0000
  F   F6        1.0  0.66187  0.33832  0.66324  1.0000
  F   F7        1.0  0.83813  0.66168  0.16324  1.0000
  F   F8        1.0  0.33813  0.83832  0.83676  1.0000
