data_image0
_chemical_formula_structural       Ir2Se4
_chemical_formula_sum              "Ir2 Se4"
_cell_length_a       5.26156
_cell_length_b       5.26156
_cell_length_c       5.26156
_cell_angle_alpha    108.192
_cell_angle_beta     108.192
_cell_angle_gamma    112.061

_space_group_name_H-M_alt    "P 1"
_space_group_IT_number       1

loop_
  _space_group_symop_operation_xyz
  'x, y, z'

loop_
  _atom_site_type_symbol
  _atom_site_label
  _atom_site_symmetry_multiplicity
  _atom_site_fract_x
  _atom_site_fract_y
  _atom_site_fract_z
  _atom_site_occupancy
  Ir  Ir1       1.0  0.25000  0.25000  0.00000  1.0000
  Ir  Ir2       1.0  0.75000  0.75000  0.00000  1.0000
  Se  Se1       1.0  0.68033  0.18033  0.86067  1.0000
  Se  Se2       1.0  0.31967  0.81967  0.13933  1.0000
  Se  Se3       1.0  0.81967  0.68033  0.50000  1.0000
  Se  Se4       1.0  0.18033  0.31967  0.50000  1.0000
