data_image0
_chemical_formula_structural       Rh4Ag18
_chemical_formula_sum              "Rh4 Ag18"
_cell_length_a       9.05564
_cell_length_b       7.18616
_cell_length_c       7.59197
_cell_angle_alpha    108.118
_cell_angle_beta     107.058
_cell_angle_gamma    108.319

_space_group_name_H-M_alt    "P 1"
_space_group_IT_number       1

loop_
  _space_group_symop_operation_xyz
  'x, y, z'

loop_
  _atom_site_type_symbol
  _atom_site_label
  _atom_site_symmetry_multiplicity
  _atom_site_fract_x
  _atom_site_fract_y
  _atom_site_fract_z
  _atom_site_occupancy
  Rh  Rh1       1.0  0.10089  0.12165  0.17649  1.0000
  Rh  Rh2       1.0  0.89911  0.87835  0.82351  1.0000
  Rh  Rh3       1.0  0.41037  0.32574  0.35666  1.0000
  Rh  Rh4       1.0  0.58963  0.67426  0.64334  1.0000
  Ag  Ag1       1.0  0.91684  0.09681  0.39224  1.0000
  Ag  Ag2       1.0  0.08316  0.90319  0.60776  1.0000
  Ag  Ag3       1.0  0.27695  0.40954  0.66932  1.0000
  Ag  Ag4       1.0  0.72305  0.59046  0.33068  1.0000
  Ag  Ag5       1.0  0.61715  0.73791  0.02740  1.0000
  Ag  Ag6       1.0  0.38285  0.26209  0.97260  1.0000
  Ag  Ag7       1.0  0.93180  0.66901  0.09773  1.0000
  Ag  Ag8       1.0  0.06820  0.33099  0.90227  1.0000
  Ag  Ag9       1.0  0.29106  0.96463  0.40947  1.0000
  Ag  Ag10      1.0  0.70894  0.03537  0.59053  1.0000
  Ag  Ag11      1.0  0.59464  0.33689  0.75652  1.0000
  Ag  Ag12      1.0  0.40536  0.66311  0.24348  1.0000
  Ag  Ag13      1.0  0.20882  0.80554  0.96857  1.0000
  Ag  Ag14      1.0  0.79118  0.19446  0.03143  1.0000
  Ag  Ag15      1.0  0.88151  0.46978  0.62878  1.0000
  Ag  Ag16      1.0  0.11849  0.53022  0.37122  1.0000
  Ag  Ag17      1.0  0.57916  0.10327  0.23920  1.0000
  Ag  Ag18      1.0  0.42084  0.89673  0.76080  1.0000
