data_image0
_chemical_formula_structural       MnF4
_chemical_formula_sum              "Mn1 F4"
_cell_length_a       4.88267
_cell_length_b       4.88267
_cell_length_c       4.88267
_cell_angle_alpha    93.5941
_cell_angle_beta     93.5941
_cell_angle_gamma    151.001

_space_group_name_H-M_alt    "P 1"
_space_group_IT_number       1

loop_
  _space_group_symop_operation_xyz
  'x, y, z'

loop_
  _atom_site_type_symbol
  _atom_site_label
  _atom_site_symmetry_multiplicity
  _atom_site_fract_x
  _atom_site_fract_y
  _atom_site_fract_z
  _atom_site_occupancy
  Mn  Mn1       1.0  0.00000  0.00000  0.00000  1.0000
  F   F1        1.0  0.54554  0.72599  0.27153  1.0000
  F   F2        1.0  0.45446  0.27401  0.72847  1.0000
  F   F3        1.0  0.27401  0.54554  0.81955  1.0000
  F   F4        1.0  0.72599  0.45446  0.18045  1.0000
