data_image0
_chemical_formula_structural       Se2Ir6
_chemical_formula_sum              "Se2 Ir6"
_cell_length_a       8.58898
_cell_length_b       8.58898
_cell_length_c       8.58898
_cell_angle_alpha    153.647
_cell_angle_beta     153.647
_cell_angle_gamma    37.6127

_space_group_name_H-M_alt    "P 1"
_space_group_IT_number       1

loop_
  _space_group_symop_operation_xyz
  'x, y, z'

loop_
  _atom_site_type_symbol
  _atom_site_label
  _atom_site_symmetry_multiplicity
  _atom_site_fract_x
  _atom_site_fract_y
  _atom_site_fract_z
  _atom_site_occupancy
  Se  Se1       1.0  0.85457  0.85457  0.00000  1.0000
  Se  Se2       1.0  0.14543  0.14543  0.00000  1.0000
  Ir  Ir1       1.0  0.00000  0.50000  0.50000  1.0000
  Ir  Ir2       1.0  0.50000  0.00000  0.50000  1.0000
  Ir  Ir3       1.0  0.75000  0.25000  0.50000  1.0000
  Ir  Ir4       1.0  0.25000  0.75000  0.50000  1.0000
  Ir  Ir5       1.0  0.61587  0.61587  0.00000  1.0000
  Ir  Ir6       1.0  0.38413  0.38413  0.00000  1.0000
