data_image0
_chemical_formula_structural       Se8Ir4
_chemical_formula_sum              "Se8 Ir4"
_cell_length_a       5.15007
_cell_length_b       7.71571
_cell_length_c       7.1649
_cell_angle_alpha    57.389
_cell_angle_beta     90
_cell_angle_gamma    90

_space_group_name_H-M_alt    "P 1"
_space_group_IT_number       1

loop_
  _space_group_symop_operation_xyz
  'x, y, z'

loop_
  _atom_site_type_symbol
  _atom_site_label
  _atom_site_symmetry_multiplicity
  _atom_site_fract_x
  _atom_site_fract_y
  _atom_site_fract_z
  _atom_site_occupancy
  Se  Se1       1.0  0.22720  0.06507  0.36966  1.0000
  Se  Se2       1.0  0.72720  0.93493  0.13034  1.0000
  Se  Se3       1.0  0.77280  0.93493  0.63034  1.0000
  Se  Se4       1.0  0.27280  0.06507  0.86966  1.0000
  Se  Se5       1.0  0.77240  0.43446  0.63068  1.0000
  Se  Se6       1.0  0.27240  0.56554  0.86932  1.0000
  Se  Se7       1.0  0.22760  0.56554  0.36932  1.0000
  Se  Se8       1.0  0.72760  0.43446  0.13068  1.0000
  Ir  Ir1       1.0  0.00019  0.24991  0.00015  1.0000
  Ir  Ir2       1.0  0.50019  0.75009  0.49985  1.0000
  Ir  Ir3       1.0  0.99981  0.75009  0.99985  1.0000
  Ir  Ir4       1.0  0.49981  0.24991  0.50015  1.0000
