data_image0
_chemical_formula_structural       F4Mn2
_chemical_formula_sum              "F4 Mn2"
_cell_length_a       4.5487
_cell_length_b       4.54871
_cell_length_c       4.54871
_cell_angle_alpha    112.299
_cell_angle_beta     112.299
_cell_angle_gamma    103.953

_space_group_name_H-M_alt    "P 1"
_space_group_IT_number       1

loop_
  _space_group_symop_operation_xyz
  'x, y, z'

loop_
  _atom_site_type_symbol
  _atom_site_label
  _atom_site_symmetry_multiplicity
  _atom_site_fract_x
  _atom_site_fract_y
  _atom_site_fract_z
  _atom_site_occupancy
  F   F1        1.0  0.77969  0.27970  0.05939  1.0000
  F   F2        1.0  0.27969  0.22030  0.49998  1.0000
  F   F3        1.0  0.22029  0.72029  0.94058  1.0000
  F   F4        1.0  0.72029  0.77970  0.49999  1.0000
  Mn  Mn1       1.0  0.25003  0.25000  0.00003  1.0000
  Mn  Mn2       1.0  0.75003  0.75000  0.00003  1.0000
