data_image0
_chemical_formula_structural       Ag8Rh12
_chemical_formula_sum              "Ag8 Rh12"
_cell_length_a       5.3209
_cell_length_b       5.3209
_cell_length_c       13.6657
_cell_angle_alpha    90
_cell_angle_beta     90
_cell_angle_gamma    120

_space_group_name_H-M_alt    "P 1"
_space_group_IT_number       1

loop_
  _space_group_symop_operation_xyz
  'x, y, z'

loop_
  _atom_site_type_symbol
  _atom_site_label
  _atom_site_symmetry_multiplicity
  _atom_site_fract_x
  _atom_site_fract_y
  _atom_site_fract_z
  _atom_site_occupancy
  Ag  Ag1       1.0  0.00000  0.00000  0.25000  1.0000
  Ag  Ag2       1.0  0.00000  0.00000  0.75000  1.0000
  Ag  Ag3       1.0  0.33333  0.66667  0.25000  1.0000
  Ag  Ag4       1.0  0.66667  0.33333  0.75000  1.0000
  Ag  Ag5       1.0  0.33333  0.66667  0.64526  1.0000
  Ag  Ag6       1.0  0.66667  0.33333  0.14526  1.0000
  Ag  Ag7       1.0  0.66667  0.33333  0.35474  1.0000
  Ag  Ag8       1.0  0.33333  0.66667  0.85474  1.0000
  Rh  Rh1       1.0  0.17088  0.34177  0.42585  1.0000
  Rh  Rh2       1.0  0.17088  0.82912  0.42585  1.0000
  Rh  Rh3       1.0  0.65823  0.82912  0.42585  1.0000
  Rh  Rh4       1.0  0.82912  0.17088  0.92585  1.0000
  Rh  Rh5       1.0  0.34177  0.17088  0.92585  1.0000
  Rh  Rh6       1.0  0.82912  0.65823  0.92585  1.0000
  Rh  Rh7       1.0  0.82912  0.65823  0.57415  1.0000
  Rh  Rh8       1.0  0.82912  0.17088  0.57415  1.0000
  Rh  Rh9       1.0  0.34177  0.17088  0.57415  1.0000
  Rh  Rh10      1.0  0.17088  0.82912  0.07415  1.0000
  Rh  Rh11      1.0  0.65823  0.82912  0.07415  1.0000
  Rh  Rh12      1.0  0.17088  0.34177  0.07415  1.0000
