data_image0
_chemical_formula_structural       Rh2Ag5
_chemical_formula_sum              "Rh2 Ag5"
_cell_length_a       4.97167
_cell_length_b       4.97167
_cell_length_c       6.40533
_cell_angle_alpha    81.9123
_cell_angle_beta     81.9123
_cell_angle_gamma    48.9657

_space_group_name_H-M_alt    "P 1"
_space_group_IT_number       1

loop_
  _space_group_symop_operation_xyz
  'x, y, z'

loop_
  _atom_site_type_symbol
  _atom_site_label
  _atom_site_symmetry_multiplicity
  _atom_site_fract_x
  _atom_site_fract_y
  _atom_site_fract_z
  _atom_site_occupancy
  Rh  Rh1       1.0  0.43178  0.43178  0.70122  1.0000
  Rh  Rh2       1.0  0.56822  0.56822  0.29878  1.0000
  Ag  Ag1       1.0  0.14230  0.14230  0.57218  1.0000
  Ag  Ag2       1.0  0.28529  0.28529  0.14228  1.0000
  Ag  Ag3       1.0  0.71471  0.71471  0.85772  1.0000
  Ag  Ag4       1.0  0.85770  0.85770  0.42782  1.0000
  Ag  Ag5       1.0  0.00000  0.00000  0.00000  1.0000
