data_image0
_chemical_formula_structural       Mn2Cl4
_chemical_formula_sum              "Mn2 Cl4"
_cell_length_a       3.72785
_cell_length_b       5.92308
_cell_length_c       6.2318
_cell_angle_alpha    90
_cell_angle_beta     90
_cell_angle_gamma    90

_space_group_name_H-M_alt    "P 1"
_space_group_IT_number       1

loop_
  _space_group_symop_operation_xyz
  'x, y, z'

loop_
  _atom_site_type_symbol
  _atom_site_label
  _atom_site_symmetry_multiplicity
  _atom_site_fract_x
  _atom_site_fract_y
  _atom_site_fract_z
  _atom_site_occupancy
  Mn  Mn1       1.0  0.50000  0.50000  0.50000  1.0000
  Mn  Mn2       1.0  0.00000  0.00000  0.00000  1.0000
  Cl  Cl1       1.0  0.50000  0.23002  0.83929  1.0000
  Cl  Cl2       1.0  0.50000  0.76998  0.16071  1.0000
  Cl  Cl3       1.0  0.00000  0.26998  0.33929  1.0000
  Cl  Cl4       1.0  0.00000  0.73002  0.66071  1.0000
