data_image0
_chemical_formula_structural       Mn2F6
_chemical_formula_sum              "Mn2 F6"
_cell_length_a       6.33461
_cell_length_b       6.33461
_cell_length_c       2.83433
_cell_angle_alpha    90
_cell_angle_beta     90
_cell_angle_gamma    120

_space_group_name_H-M_alt    "P 1"
_space_group_IT_number       1

loop_
  _space_group_symop_operation_xyz
  'x, y, z'

loop_
  _atom_site_type_symbol
  _atom_site_label
  _atom_site_symmetry_multiplicity
  _atom_site_fract_x
  _atom_site_fract_y
  _atom_site_fract_z
  _atom_site_occupancy
  Mn  Mn1       1.0  0.33333  0.66667  0.75000  1.0000
  Mn  Mn2       1.0  0.66667  0.33333  0.25000  1.0000
  F   F1        1.0  0.20618  0.41236  0.25000  1.0000
  F   F2        1.0  0.58764  0.79382  0.25000  1.0000
  F   F3        1.0  0.20618  0.79382  0.25000  1.0000
  F   F4        1.0  0.79382  0.58764  0.75000  1.0000
  F   F5        1.0  0.41236  0.20618  0.75000  1.0000
  F   F6        1.0  0.79382  0.20618  0.75000  1.0000
