data_image0
_chemical_formula_structural       N4Mn2
_chemical_formula_sum              "N4 Mn2"
_cell_length_a       4.07574
_cell_length_b       4.07574
_cell_length_c       4.07574
_cell_angle_alpha    114.72
_cell_angle_beta     114.72
_cell_angle_gamma    99.4172

_space_group_name_H-M_alt    "P 1"
_space_group_IT_number       1

loop_
  _space_group_symop_operation_xyz
  'x, y, z'

loop_
  _atom_site_type_symbol
  _atom_site_label
  _atom_site_symmetry_multiplicity
  _atom_site_fract_x
  _atom_site_fract_y
  _atom_site_fract_z
  _atom_site_occupancy
  N   N1        1.0  0.89769  0.39773  0.29542  1.0000
  N   N2        1.0  0.39769  0.10227  0.49996  1.0000
  N   N3        1.0  0.10227  0.60230  0.70457  1.0000
  N   N4        1.0  0.60227  0.89770  0.49996  1.0000
  Mn  Mn1       1.0  0.25004  0.25000  0.00004  1.0000
  Mn  Mn2       1.0  0.75004  0.75000  0.00004  1.0000
