data_image0
_chemical_formula_structural       MnN4
_chemical_formula_sum              "Mn1 N4"
_cell_length_a       4.83283
_cell_length_b       4.83283
_cell_length_c       4.83283
_cell_angle_alpha    92.983
_cell_angle_beta     92.983
_cell_angle_gamma    153.627

_space_group_name_H-M_alt    "P 1"
_space_group_IT_number       1

loop_
  _space_group_symop_operation_xyz
  'x, y, z'

loop_
  _atom_site_type_symbol
  _atom_site_label
  _atom_site_symmetry_multiplicity
  _atom_site_fract_x
  _atom_site_fract_y
  _atom_site_fract_z
  _atom_site_occupancy
  Mn  Mn1       1.0  0.00000  0.00000  0.00000  1.0000
  N   N1        1.0  0.79037  0.79044  0.58080  1.0000
  N   N2        1.0  0.20963  0.20956  0.41920  1.0000
  N   N3        1.0  0.20956  0.79037  0.99993  1.0000
  N   N4        1.0  0.79044  0.20963  0.00007  1.0000
