data_image0
_chemical_formula_structural       Ir4Tl12
_chemical_formula_sum              "Ir4 Tl12"
_cell_length_a       8.3283
_cell_length_b       8.3283
_cell_length_c       6.02805
_cell_angle_alpha    90
_cell_angle_beta     90
_cell_angle_gamma    112.976

_space_group_name_H-M_alt    "P 1"
_space_group_IT_number       1

loop_
  _space_group_symop_operation_xyz
  'x, y, z'

loop_
  _atom_site_type_symbol
  _atom_site_label
  _atom_site_symmetry_multiplicity
  _atom_site_fract_x
  _atom_site_fract_y
  _atom_site_fract_z
  _atom_site_occupancy
  Ir  Ir1       1.0  0.67034  0.32966  0.00000  1.0000
  Ir  Ir2       1.0  0.32966  0.67034  0.00000  1.0000
  Ir  Ir3       1.0  0.17034  0.82966  0.50000  1.0000
  Ir  Ir4       1.0  0.82966  0.17034  0.50000  1.0000
  Tl  Tl1       1.0  0.67205  0.67205  0.00435  1.0000
  Tl  Tl2       1.0  0.17205  0.17205  0.49565  1.0000
  Tl  Tl3       1.0  0.82795  0.82795  0.50435  1.0000
  Tl  Tl4       1.0  0.38643  0.61357  0.50000  1.0000
  Tl  Tl5       1.0  0.99997  0.49997  0.75000  1.0000
  Tl  Tl6       1.0  0.88643  0.11357  0.00000  1.0000
  Tl  Tl7       1.0  0.00003  0.50003  0.25000  1.0000
  Tl  Tl8       1.0  0.32795  0.32795  0.99565  1.0000
  Tl  Tl9       1.0  0.61357  0.38643  0.50000  1.0000
  Tl  Tl10      1.0  0.11357  0.88643  0.00000  1.0000
  Tl  Tl11      1.0  0.50003  0.00003  0.25000  1.0000
  Tl  Tl12      1.0  0.49997  0.99997  0.75000  1.0000
