data_image0
_chemical_formula_structural       Mn2I3
_chemical_formula_sum              "Mn2 I3"
_cell_length_a       5.62049
_cell_length_b       5.62049
_cell_length_c       5.69645
_cell_angle_alpha    90
_cell_angle_beta     90
_cell_angle_gamma    120

_space_group_name_H-M_alt    "P 1"
_space_group_IT_number       1

loop_
  _space_group_symop_operation_xyz
  'x, y, z'

loop_
  _atom_site_type_symbol
  _atom_site_label
  _atom_site_symmetry_multiplicity
  _atom_site_fract_x
  _atom_site_fract_y
  _atom_site_fract_z
  _atom_site_occupancy
  Mn  Mn1       1.0  0.66667  0.33333  0.17746  1.0000
  Mn  Mn2       1.0  0.33333  0.66667  0.82254  1.0000
  I   I1        1.0  0.66667  0.33333  0.67952  1.0000
  I   I2        1.0  0.33333  0.66667  0.32048  1.0000
  I   I3        1.0  0.00000  0.00000  0.00000  1.0000
