data_image0
_chemical_formula_structural       Mn3Br8
_chemical_formula_sum              "Mn3 Br8"
_cell_length_a       6.74827
_cell_length_b       6.74827
_cell_length_c       6.74827
_cell_angle_alpha    96.093
_cell_angle_beta     96.093
_cell_angle_gamma    96.093

_space_group_name_H-M_alt    "P 1"
_space_group_IT_number       1

loop_
  _space_group_symop_operation_xyz
  'x, y, z'

loop_
  _atom_site_type_symbol
  _atom_site_label
  _atom_site_symmetry_multiplicity
  _atom_site_fract_x
  _atom_site_fract_y
  _atom_site_fract_z
  _atom_site_occupancy
  Mn  Mn1       1.0  0.50000  0.00000  0.50000  1.0000
  Mn  Mn2       1.0  0.00000  0.50000  0.50000  1.0000
  Mn  Mn3       1.0  0.50000  0.50000  0.00000  1.0000
  Br  Br1       1.0  0.61368  0.85208  0.18371  1.0000
  Br  Br2       1.0  0.85208  0.18371  0.61368  1.0000
  Br  Br3       1.0  0.18371  0.61368  0.85208  1.0000
  Br  Br4       1.0  0.68129  0.68129  0.68129  1.0000
  Br  Br5       1.0  0.31871  0.31871  0.31871  1.0000
  Br  Br6       1.0  0.81629  0.38632  0.14792  1.0000
  Br  Br7       1.0  0.14792  0.81629  0.38632  1.0000
  Br  Br8       1.0  0.38632  0.14792  0.81629  1.0000
