data_image0
_chemical_formula_structural       Ir6Se10
_chemical_formula_sum              "Ir6 Se10"
_cell_length_a       3.67501
_cell_length_b       9.35269
_cell_length_c       11.3815
_cell_angle_alpha    90
_cell_angle_beta     90
_cell_angle_gamma    90

_space_group_name_H-M_alt    "P 1"
_space_group_IT_number       1

loop_
  _space_group_symop_operation_xyz
  'x, y, z'

loop_
  _atom_site_type_symbol
  _atom_site_label
  _atom_site_symmetry_multiplicity
  _atom_site_fract_x
  _atom_site_fract_y
  _atom_site_fract_z
  _atom_site_occupancy
  Ir  Ir1       1.0  0.50000  0.32847  0.93269  1.0000
  Ir  Ir2       1.0  0.50000  0.82847  0.56731  1.0000
  Ir  Ir3       1.0  0.00000  0.50000  0.50000  1.0000
  Ir  Ir4       1.0  0.00000  0.00000  0.00000  1.0000
  Ir  Ir5       1.0  0.50000  0.67153  0.06731  1.0000
  Ir  Ir6       1.0  0.50000  0.17153  0.43269  1.0000
  Se  Se1       1.0  0.50000  0.64739  0.41462  1.0000
  Se  Se2       1.0  0.50000  0.35261  0.58538  1.0000
  Se  Se3       1.0  0.00000  0.19272  0.84273  1.0000
  Se  Se4       1.0  0.50000  0.85261  0.91462  1.0000
  Se  Se5       1.0  0.00000  0.30728  0.34273  1.0000
  Se  Se6       1.0  0.00000  0.80728  0.15727  1.0000
  Se  Se7       1.0  0.00000  0.69272  0.65727  1.0000
  Se  Se8       1.0  0.00000  0.50000  0.00000  1.0000
  Se  Se9       1.0  0.00000  0.00000  0.50000  1.0000
  Se  Se10      1.0  0.50000  0.14739  0.08538  1.0000
