data_image0
_chemical_formula_structural       Au9Rh13
_chemical_formula_sum              "Au9 Rh13"
_cell_length_a       8.81621
_cell_length_b       8.81621
_cell_length_c       5.38905
_cell_angle_alpha    90
_cell_angle_beta     90
_cell_angle_gamma    120

_space_group_name_H-M_alt    "P 1"
_space_group_IT_number       1

loop_
  _space_group_symop_operation_xyz
  'x, y, z'

loop_
  _atom_site_type_symbol
  _atom_site_label
  _atom_site_symmetry_multiplicity
  _atom_site_fract_x
  _atom_site_fract_y
  _atom_site_fract_z
  _atom_site_occupancy
  Au  Au1       1.0  0.00000  0.00000  0.50000  1.0000
  Au  Au2       1.0  0.33333  0.66667  0.74679  1.0000
  Au  Au3       1.0  0.66667  0.33333  0.25321  1.0000
  Au  Au4       1.0  0.19276  0.80724  0.25230  1.0000
  Au  Au5       1.0  0.19276  0.38551  0.25230  1.0000
  Au  Au6       1.0  0.61449  0.80724  0.25230  1.0000
  Au  Au7       1.0  0.38551  0.19276  0.74770  1.0000
  Au  Au8       1.0  0.80724  0.61449  0.74770  1.0000
  Au  Au9       1.0  0.80724  0.19276  0.74770  1.0000
  Rh  Rh1       1.0  0.00000  0.00000  0.00000  1.0000
  Rh  Rh2       1.0  0.50000  0.00000  0.00000  1.0000
  Rh  Rh3       1.0  1.00000  0.50000  0.00000  1.0000
  Rh  Rh4       1.0  0.50000  0.50000  0.00000  1.0000
  Rh  Rh5       1.0  0.50000  0.00000  0.50000  1.0000
  Rh  Rh6       1.0  1.00000  0.50000  0.50000  1.0000
  Rh  Rh7       1.0  0.50000  0.50000  0.50000  1.0000
  Rh  Rh8       1.0  0.16025  0.83975  0.75473  1.0000
  Rh  Rh9       1.0  0.16025  0.32051  0.75473  1.0000
  Rh  Rh10      1.0  0.67949  0.83975  0.75473  1.0000
  Rh  Rh11      1.0  0.32051  0.16025  0.24527  1.0000
  Rh  Rh12      1.0  0.83975  0.67949  0.24527  1.0000
  Rh  Rh13      1.0  0.83975  0.16025  0.24527  1.0000
