data_image0
_chemical_formula_structural       Rh4Au12
_chemical_formula_sum              "Rh4 Au12"
_cell_length_a       8.68157
_cell_length_b       8.68157
_cell_length_c       5.78784
_cell_angle_alpha    90
_cell_angle_beta     90
_cell_angle_gamma    141.1

_space_group_name_H-M_alt    "P 1"
_space_group_IT_number       1

loop_
  _space_group_symop_operation_xyz
  'x, y, z'

loop_
  _atom_site_type_symbol
  _atom_site_label
  _atom_site_symmetry_multiplicity
  _atom_site_fract_x
  _atom_site_fract_y
  _atom_site_fract_z
  _atom_site_occupancy
  Rh  Rh1       1.0  0.62497  0.37503  0.00000  1.0000
  Rh  Rh2       1.0  0.37503  0.62497  0.00000  1.0000
  Rh  Rh3       1.0  0.12497  0.87503  0.50000  1.0000
  Rh  Rh4       1.0  0.87503  0.12497  0.50000  1.0000
  Au  Au1       1.0  0.75058  0.75058  0.25130  1.0000
  Au  Au2       1.0  0.25058  0.25058  0.24870  1.0000
  Au  Au3       1.0  0.74942  0.74942  0.75130  1.0000
  Au  Au4       1.0  0.37447  0.62553  0.50000  1.0000
  Au  Au5       1.0  0.99906  0.49906  0.75000  1.0000
  Au  Au6       1.0  0.87447  0.12553  0.00000  1.0000
  Au  Au7       1.0  0.00094  0.50094  0.25000  1.0000
  Au  Au8       1.0  0.24942  0.24942  0.74870  1.0000
  Au  Au9       1.0  0.62553  0.37447  0.50000  1.0000
  Au  Au10      1.0  0.12553  0.87447  0.00000  1.0000
  Au  Au11      1.0  0.50094  0.00094  0.25000  1.0000
  Au  Au12      1.0  0.49906  0.99906  0.75000  1.0000
