data_image0
_chemical_formula_structural       Cl6Rh2
_chemical_formula_sum              "Cl6 Rh2"
_cell_length_a       3.31898
_cell_length_b       8.08862
_cell_length_c       8.83639
_cell_angle_alpha    90
_cell_angle_beta     90
_cell_angle_gamma    90

_space_group_name_H-M_alt    "P 1"
_space_group_IT_number       1

loop_
  _space_group_symop_operation_xyz
  'x, y, z'

loop_
  _atom_site_type_symbol
  _atom_site_label
  _atom_site_symmetry_multiplicity
  _atom_site_fract_x
  _atom_site_fract_y
  _atom_site_fract_z
  _atom_site_occupancy
  Cl  Cl1       1.0  0.00000  0.29070  0.32857  1.0000
  Cl  Cl2       1.0  0.00000  0.29070  0.67143  1.0000
  Cl  Cl3       1.0  0.50000  0.70930  0.17143  1.0000
  Cl  Cl4       1.0  0.50000  0.70930  0.82857  1.0000
  Cl  Cl5       1.0  0.00000  0.96653  0.50000  1.0000
  Cl  Cl6       1.0  0.50000  0.03347  0.00000  1.0000
  Rh  Rh1       1.0  0.00000  0.81725  0.00000  1.0000
  Rh  Rh2       1.0  0.50000  0.18275  0.50000  1.0000
