data_image0
_chemical_formula_structural       Rh6Ag16
_chemical_formula_sum              "Rh6 Ag16"
_cell_length_a       5.22926
_cell_length_b       5.21395
_cell_length_c       16.0341
_cell_angle_alpha    62.853
_cell_angle_beta     90
_cell_angle_gamma    90

_space_group_name_H-M_alt    "P 1"
_space_group_IT_number       1

loop_
  _space_group_symop_operation_xyz
  'x, y, z'

loop_
  _atom_site_type_symbol
  _atom_site_label
  _atom_site_symmetry_multiplicity
  _atom_site_fract_x
  _atom_site_fract_y
  _atom_site_fract_z
  _atom_site_occupancy
  Rh  Rh1       1.0  0.37835  0.92728  0.74338  1.0000
  Rh  Rh2       1.0  0.62165  0.07272  0.25662  1.0000
  Rh  Rh3       1.0  0.50000  0.00000  0.00000  1.0000
  Rh  Rh4       1.0  0.87835  0.07272  0.75662  1.0000
  Rh  Rh5       1.0  0.12165  0.92728  0.24338  1.0000
  Rh  Rh6       1.0  0.00000  0.00000  0.50000  1.0000
  Ag  Ag1       1.0  0.54689  0.66227  0.19585  1.0000
  Ag  Ag2       1.0  0.64060  0.26522  0.57905  1.0000
  Ag  Ag3       1.0  0.63332  0.64999  0.91078  1.0000
  Ag  Ag4       1.0  0.53080  0.25034  0.40007  1.0000
  Ag  Ag5       1.0  0.96920  0.25034  0.90007  1.0000
  Ag  Ag6       1.0  0.85940  0.26522  0.07905  1.0000
  Ag  Ag7       1.0  0.86668  0.64999  0.41078  1.0000
  Ag  Ag8       1.0  0.95311  0.66227  0.69585  1.0000
  Ag  Ag9       1.0  0.14060  0.73478  0.92095  1.0000
  Ag  Ag10      1.0  0.03080  0.74966  0.09993  1.0000
  Ag  Ag11      1.0  0.13332  0.35001  0.58922  1.0000
  Ag  Ag12      1.0  0.04689  0.33773  0.30415  1.0000
  Ag  Ag13      1.0  0.36668  0.35001  0.08922  1.0000
  Ag  Ag14      1.0  0.45311  0.33773  0.80415  1.0000
  Ag  Ag15      1.0  0.35940  0.73478  0.42095  1.0000
  Ag  Ag16      1.0  0.46920  0.74966  0.59993  1.0000
