data_image0
_chemical_formula_structural       RhBr4
_chemical_formula_sum              "Rh1 Br4"
_cell_length_a       7.2358
_cell_length_b       7.2358
_cell_length_c       7.2358
_cell_angle_alpha    92.6366
_cell_angle_beta     92.6366
_cell_angle_gamma    155.23

_space_group_name_H-M_alt    "P 1"
_space_group_IT_number       1

loop_
  _space_group_symop_operation_xyz
  'x, y, z'

loop_
  _atom_site_type_symbol
  _atom_site_label
  _atom_site_symmetry_multiplicity
  _atom_site_fract_x
  _atom_site_fract_y
  _atom_site_fract_z
  _atom_site_occupancy
  Rh  Rh1       1.0  0.00000  0.00000  0.00000  1.0000
  Br  Br1       1.0  0.53854  0.28056  0.81910  1.0000
  Br  Br2       1.0  0.46146  0.71944  0.18090  1.0000
  Br  Br3       1.0  0.71944  0.53854  0.25798  1.0000
  Br  Br4       1.0  0.28056  0.46146  0.74202  1.0000
