data_image0
_chemical_formula_structural       Rh2Au2
_chemical_formula_sum              "Rh2 Au2"
_cell_length_a       2.80822
_cell_length_b       4.68557
_cell_length_c       4.97061
_cell_angle_alpha    90
_cell_angle_beta     90
_cell_angle_gamma    90

_space_group_name_H-M_alt    "P 1"
_space_group_IT_number       1

loop_
  _space_group_symop_operation_xyz
  'x, y, z'

loop_
  _atom_site_type_symbol
  _atom_site_label
  _atom_site_symmetry_multiplicity
  _atom_site_fract_x
  _atom_site_fract_y
  _atom_site_fract_z
  _atom_site_occupancy
  Rh  Rh1       1.0  0.00000  0.75000  0.35473  1.0000
  Rh  Rh2       1.0  0.00000  0.25000  0.64527  1.0000
  Au  Au1       1.0  0.50000  0.75000  0.84216  1.0000
  Au  Au2       1.0  0.50000  0.25000  0.15784  1.0000
