data_image0
_chemical_formula_structural       Rh12Br16
_chemical_formula_sum              "Rh12 Br16"
_cell_length_a       10.0757
_cell_length_b       10.0757
_cell_length_c       7.91441
_cell_angle_alpha    90
_cell_angle_beta     90
_cell_angle_gamma    120

_space_group_name_H-M_alt    "P 1"
_space_group_IT_number       1

loop_
  _space_group_symop_operation_xyz
  'x, y, z'

loop_
  _atom_site_type_symbol
  _atom_site_label
  _atom_site_symmetry_multiplicity
  _atom_site_fract_x
  _atom_site_fract_y
  _atom_site_fract_z
  _atom_site_occupancy
  Rh  Rh1       1.0  0.58972  0.14048  0.70678  1.0000
  Rh  Rh2       1.0  0.55076  0.41028  0.70678  1.0000
  Rh  Rh3       1.0  0.85952  0.44924  0.70678  1.0000
  Rh  Rh4       1.0  0.41028  0.55076  0.20678  1.0000
  Rh  Rh5       1.0  0.44924  0.85952  0.20678  1.0000
  Rh  Rh6       1.0  0.14048  0.58972  0.20678  1.0000
  Rh  Rh7       1.0  0.11421  0.30093  0.08624  1.0000
  Rh  Rh8       1.0  0.18672  0.88579  0.08624  1.0000
  Rh  Rh9       1.0  0.69907  0.81328  0.08624  1.0000
  Rh  Rh10      1.0  0.88579  0.18672  0.58624  1.0000
  Rh  Rh11      1.0  0.81328  0.69907  0.58624  1.0000
  Rh  Rh12      1.0  0.30093  0.11421  0.58624  1.0000
  Br  Br1       1.0  0.00021  0.63760  0.98025  1.0000
  Br  Br2       1.0  0.63740  0.99979  0.98025  1.0000
  Br  Br3       1.0  0.36240  0.36260  0.98025  1.0000
  Br  Br4       1.0  0.99979  0.63740  0.48025  1.0000
  Br  Br5       1.0  0.36260  0.36240  0.48025  1.0000
  Br  Br6       1.0  0.63760  0.00021  0.48025  1.0000
  Br  Br7       1.0  0.05511  0.37203  0.79212  1.0000
  Br  Br8       1.0  0.31692  0.94489  0.79212  1.0000
  Br  Br9       1.0  0.62797  0.68308  0.79212  1.0000
  Br  Br10      1.0  0.94489  0.31692  0.29212  1.0000
  Br  Br11      1.0  0.68308  0.62797  0.29212  1.0000
  Br  Br12      1.0  0.37203  0.05511  0.29212  1.0000
  Br  Br13      1.0  0.00000  0.00000  0.08696  1.0000
  Br  Br14      1.0  0.00000  0.00000  0.58696  1.0000
  Br  Br15      1.0  0.33333  0.66667  0.43130  1.0000
  Br  Br16      1.0  0.66667  0.33333  0.93130  1.0000
