data_image0
_chemical_formula_structural       Au6Rh2
_chemical_formula_sum              "Au6 Rh2"
_cell_length_a       4.78529
_cell_length_b       4.94898
_cell_length_c       5.8148
_cell_angle_alpha    90
_cell_angle_beta     90
_cell_angle_gamma    90

_space_group_name_H-M_alt    "P 1"
_space_group_IT_number       1

loop_
  _space_group_symop_operation_xyz
  'x, y, z'

loop_
  _atom_site_type_symbol
  _atom_site_label
  _atom_site_symmetry_multiplicity
  _atom_site_fract_x
  _atom_site_fract_y
  _atom_site_fract_z
  _atom_site_occupancy
  Au  Au1       1.0  0.00000  0.33013  0.24859  1.0000
  Au  Au2       1.0  0.00000  0.33013  0.75141  1.0000
  Au  Au3       1.0  0.50000  0.66987  0.25141  1.0000
  Au  Au4       1.0  0.50000  0.66987  0.74859  1.0000
  Au  Au5       1.0  0.00000  0.83993  0.50000  1.0000
  Au  Au6       1.0  0.50000  0.16007  0.00000  1.0000
  Rh  Rh1       1.0  0.00000  0.82689  0.00000  1.0000
  Rh  Rh2       1.0  0.50000  0.17311  0.50000  1.0000
