data_image0
_chemical_formula_structural       Rh6Br10
_chemical_formula_sum              "Rh6 Br10"
_cell_length_a       3.79235
_cell_length_b       10.7659
_cell_length_c       9.79061
_cell_angle_alpha    90
_cell_angle_beta     90
_cell_angle_gamma    90

_space_group_name_H-M_alt    "P 1"
_space_group_IT_number       1

loop_
  _space_group_symop_operation_xyz
  'x, y, z'

loop_
  _atom_site_type_symbol
  _atom_site_label
  _atom_site_symmetry_multiplicity
  _atom_site_fract_x
  _atom_site_fract_y
  _atom_site_fract_z
  _atom_site_occupancy
  Rh  Rh1       1.0  0.50000  0.34435  0.90398  1.0000
  Rh  Rh2       1.0  0.50000  0.84435  0.59602  1.0000
  Rh  Rh3       1.0  0.00000  0.50000  0.50000  1.0000
  Rh  Rh4       1.0  0.00000  0.00000  0.00000  1.0000
  Rh  Rh5       1.0  0.50000  0.65565  0.09602  1.0000
  Rh  Rh6       1.0  0.50000  0.15565  0.40398  1.0000
  Br  Br1       1.0  0.50000  0.58115  0.34564  1.0000
  Br  Br2       1.0  0.50000  0.41885  0.65436  1.0000
  Br  Br3       1.0  0.00000  0.20103  0.86481  1.0000
  Br  Br4       1.0  0.50000  0.91885  0.84564  1.0000
  Br  Br5       1.0  0.00000  0.29897  0.36481  1.0000
  Br  Br6       1.0  0.00000  0.79897  0.13519  1.0000
  Br  Br7       1.0  0.00000  0.70103  0.63519  1.0000
  Br  Br8       1.0  0.00000  0.50000  0.00000  1.0000
  Br  Br9       1.0  0.00000  0.00000  0.50000  1.0000
  Br  Br10      1.0  0.50000  0.08115  0.15436  1.0000
