data_image0
_chemical_formula_structural       Br3Rh
_chemical_formula_sum              "Br3 Rh1"
_cell_length_a       7.92537
_cell_length_b       7.92537
_cell_length_c       7.92537
_cell_angle_alpha    151.462
_cell_angle_beta     151.462
_cell_angle_gamma    40.7989

_space_group_name_H-M_alt    "P 1"
_space_group_IT_number       1

loop_
  _space_group_symop_operation_xyz
  'x, y, z'

loop_
  _atom_site_type_symbol
  _atom_site_label
  _atom_site_symmetry_multiplicity
  _atom_site_fract_x
  _atom_site_fract_y
  _atom_site_fract_z
  _atom_site_occupancy
  Br  Br1       1.0  0.75000  0.25000  0.50000  1.0000
  Br  Br2       1.0  0.25000  0.75000  0.50000  1.0000
  Br  Br3       1.0  0.50000  0.50000  0.00000  1.0000
  Rh  Rh1       1.0  0.00000  0.00000  0.00000  1.0000
