data_image0
_chemical_formula_structural       Rh12Br4
_chemical_formula_sum              "Rh12 Br4"
_cell_length_a       7.62702
_cell_length_b       7.62702
_cell_length_c       7.62702
_cell_angle_alpha    95.8751
_cell_angle_beta     95.8751
_cell_angle_gamma    142.682

_space_group_name_H-M_alt    "P 1"
_space_group_IT_number       1

loop_
  _space_group_symop_operation_xyz
  'x, y, z'

loop_
  _atom_site_type_symbol
  _atom_site_label
  _atom_site_symmetry_multiplicity
  _atom_site_fract_x
  _atom_site_fract_y
  _atom_site_fract_z
  _atom_site_occupancy
  Rh  Rh1       1.0  0.14050  0.50000  0.64050  1.0000
  Rh  Rh2       1.0  0.50000  0.85950  0.35950  1.0000
  Rh  Rh3       1.0  0.50000  0.14050  0.64050  1.0000
  Rh  Rh4       1.0  0.85950  0.50000  0.35950  1.0000
  Rh  Rh5       1.0  0.20186  0.20186  0.80675  1.0000
  Rh  Rh6       1.0  0.60489  0.79814  0.00000  1.0000
  Rh  Rh7       1.0  0.79814  0.60489  0.00000  1.0000
  Rh  Rh8       1.0  0.39511  0.39511  0.19325  1.0000
  Rh  Rh9       1.0  0.55897  0.55897  0.59339  1.0000
  Rh  Rh10      1.0  0.03441  0.44103  0.00000  1.0000
  Rh  Rh11      1.0  0.44103  0.03441  0.00000  1.0000
  Rh  Rh12      1.0  0.96559  0.96559  0.40661  1.0000
  Br  Br1       1.0  0.72139  0.00000  0.72139  1.0000
  Br  Br2       1.0  0.00000  0.27861  0.27861  1.0000
  Br  Br3       1.0  0.00000  0.72139  0.72139  1.0000
  Br  Br4       1.0  0.27861  0.00000  0.27861  1.0000
