data_image0
_chemical_formula_structural       Rh8Au16
_chemical_formula_sum              "Rh8 Au16"
_cell_length_a       4.58088
_cell_length_b       8.03841
_cell_length_c       11.2474
_cell_angle_alpha    90
_cell_angle_beta     90
_cell_angle_gamma    90

_space_group_name_H-M_alt    "P 1"
_space_group_IT_number       1

loop_
  _space_group_symop_operation_xyz
  'x, y, z'

loop_
  _atom_site_type_symbol
  _atom_site_label
  _atom_site_symmetry_multiplicity
  _atom_site_fract_x
  _atom_site_fract_y
  _atom_site_fract_z
  _atom_site_occupancy
  Rh  Rh1       1.0  0.49349  0.81442  0.12628  1.0000
  Rh  Rh2       1.0  0.00651  0.68558  0.62628  1.0000
  Rh  Rh3       1.0  0.00651  0.31442  0.87372  1.0000
  Rh  Rh4       1.0  0.49349  0.18558  0.37372  1.0000
  Rh  Rh5       1.0  0.50651  0.18558  0.87372  1.0000
  Rh  Rh6       1.0  0.99349  0.31442  0.37372  1.0000
  Rh  Rh7       1.0  0.99349  0.68558  0.12628  1.0000
  Rh  Rh8       1.0  0.50651  0.81442  0.62628  1.0000
  Au  Au1       1.0  0.49900  0.50000  0.25000  1.0000
  Au  Au2       1.0  0.00100  0.00000  0.75000  1.0000
  Au  Au3       1.0  0.50100  0.50000  0.75000  1.0000
  Au  Au4       1.0  0.99900  0.00000  0.25000  1.0000
  Au  Au5       1.0  0.49965  0.84734  0.37637  1.0000
  Au  Au6       1.0  0.00035  0.65266  0.87637  1.0000
  Au  Au7       1.0  0.00035  0.34734  0.62363  1.0000
  Au  Au8       1.0  0.49965  0.15266  0.12363  1.0000
  Au  Au9       1.0  0.50035  0.15266  0.62363  1.0000
  Au  Au10      1.0  0.99965  0.34734  0.12363  1.0000
  Au  Au11      1.0  0.99965  0.65266  0.37637  1.0000
  Au  Au12      1.0  0.50035  0.84734  0.87637  1.0000
  Au  Au13      1.0  0.50000  0.50000  0.00000  1.0000
  Au  Au14      1.0  0.00000  0.00000  0.50000  1.0000
  Au  Au15      1.0  0.00000  0.00000  0.00000  1.0000
  Au  Au16      1.0  0.50000  0.50000  0.50000  1.0000
