data_image0
_chemical_formula_structural       Rh8Br12
_chemical_formula_sum              "Rh8 Br12"
_cell_length_a       3.62517
_cell_length_b       9.7621
_cell_length_c       14.8806
_cell_angle_alpha    90
_cell_angle_beta     90
_cell_angle_gamma    90

_space_group_name_H-M_alt    "P 1"
_space_group_IT_number       1

loop_
  _space_group_symop_operation_xyz
  'x, y, z'

loop_
  _atom_site_type_symbol
  _atom_site_label
  _atom_site_symmetry_multiplicity
  _atom_site_fract_x
  _atom_site_fract_y
  _atom_site_fract_z
  _atom_site_occupancy
  Rh  Rh1       1.0  0.25000  0.03138  0.92140  1.0000
  Rh  Rh2       1.0  0.75000  0.96862  0.07860  1.0000
  Rh  Rh3       1.0  0.75000  0.53138  0.57860  1.0000
  Rh  Rh4       1.0  0.25000  0.46862  0.42140  1.0000
  Rh  Rh5       1.0  0.25000  0.17071  0.50692  1.0000
  Rh  Rh6       1.0  0.75000  0.82929  0.49308  1.0000
  Rh  Rh7       1.0  0.75000  0.67071  0.99308  1.0000
  Rh  Rh8       1.0  0.25000  0.32929  0.00692  1.0000
  Br  Br1       1.0  0.25000  0.36441  0.61971  1.0000
  Br  Br2       1.0  0.75000  0.63559  0.38029  1.0000
  Br  Br3       1.0  0.75000  0.86441  0.88029  1.0000
  Br  Br4       1.0  0.25000  0.13559  0.11971  1.0000
  Br  Br5       1.0  0.25000  0.96229  0.40015  1.0000
  Br  Br6       1.0  0.75000  0.03771  0.59985  1.0000
  Br  Br7       1.0  0.75000  0.46229  0.09985  1.0000
  Br  Br8       1.0  0.25000  0.53771  0.90015  1.0000
  Br  Br9       1.0  0.25000  0.78653  0.09760  1.0000
  Br  Br10      1.0  0.75000  0.21347  0.90240  1.0000
  Br  Br11      1.0  0.75000  0.28653  0.40240  1.0000
  Br  Br12      1.0  0.25000  0.71347  0.59760  1.0000
