data_image0
_chemical_formula_structural       Br9Rh13
_chemical_formula_sum              "Br9 Rh13"
_cell_length_a       8.13428
_cell_length_b       8.13428
_cell_length_c       6.77952
_cell_angle_alpha    90
_cell_angle_beta     90
_cell_angle_gamma    120

_space_group_name_H-M_alt    "P 1"
_space_group_IT_number       1

loop_
  _space_group_symop_operation_xyz
  'x, y, z'

loop_
  _atom_site_type_symbol
  _atom_site_label
  _atom_site_symmetry_multiplicity
  _atom_site_fract_x
  _atom_site_fract_y
  _atom_site_fract_z
  _atom_site_occupancy
  Br  Br1       1.0  0.00000  0.00000  0.50000  1.0000
  Br  Br2       1.0  0.33333  0.66667  0.63488  1.0000
  Br  Br3       1.0  0.66667  0.33333  0.36512  1.0000
  Br  Br4       1.0  0.19906  0.80094  0.20868  1.0000
  Br  Br5       1.0  0.19906  0.39812  0.20868  1.0000
  Br  Br6       1.0  0.60188  0.80094  0.20868  1.0000
  Br  Br7       1.0  0.39812  0.19906  0.79132  1.0000
  Br  Br8       1.0  0.80094  0.60188  0.79132  1.0000
  Br  Br9       1.0  0.80094  0.19906  0.79132  1.0000
  Rh  Rh1       1.0  0.00000  0.00000  0.00000  1.0000
  Rh  Rh2       1.0  0.50000  0.00000  0.00000  1.0000
  Rh  Rh3       1.0  0.00000  0.50000  0.00000  1.0000
  Rh  Rh4       1.0  0.50000  0.50000  0.00000  1.0000
  Rh  Rh5       1.0  0.50000  0.00000  0.50000  1.0000
  Rh  Rh6       1.0  0.00000  0.50000  0.50000  1.0000
  Rh  Rh7       1.0  0.50000  0.50000  0.50000  1.0000
  Rh  Rh8       1.0  0.15909  0.84091  0.75867  1.0000
  Rh  Rh9       1.0  0.15909  0.31819  0.75867  1.0000
  Rh  Rh10      1.0  0.68181  0.84091  0.75867  1.0000
  Rh  Rh11      1.0  0.31819  0.15909  0.24133  1.0000
  Rh  Rh12      1.0  0.84091  0.68181  0.24133  1.0000
  Rh  Rh13      1.0  0.84091  0.15909  0.24133  1.0000
