data_image0
_chemical_formula_structural       Rh2Br6
_chemical_formula_sum              "Rh2 Br6"
_cell_length_a       5.05874
_cell_length_b       3.7127
_cell_length_c       12.1769
_cell_angle_alpha    90
_cell_angle_beta     90
_cell_angle_gamma    90

_space_group_name_H-M_alt    "P 1"
_space_group_IT_number       1

loop_
  _space_group_symop_operation_xyz
  'x, y, z'

loop_
  _atom_site_type_symbol
  _atom_site_label
  _atom_site_symmetry_multiplicity
  _atom_site_fract_x
  _atom_site_fract_y
  _atom_site_fract_z
  _atom_site_occupancy
  Rh  Rh1       1.0  0.50000  0.68275  0.50000  1.0000
  Rh  Rh2       1.0  0.00000  0.31725  0.00000  1.0000
  Br  Br1       1.0  0.50000  0.17576  0.63948  1.0000
  Br  Br2       1.0  0.50000  0.17576  0.36052  1.0000
  Br  Br3       1.0  0.00000  0.82424  0.86052  1.0000
  Br  Br4       1.0  0.00000  0.82424  0.13948  1.0000
  Br  Br5       1.0  0.00000  0.56632  0.50000  1.0000
  Br  Br6       1.0  0.50000  0.43368  0.00000  1.0000
