data_image0
_chemical_formula_structural       RhAu4
_chemical_formula_sum              "Rh1 Au4"
_cell_length_a       5.02321
_cell_length_b       5.02321
_cell_length_c       5.02321
_cell_angle_alpha    99.7814
_cell_angle_beta     99.7814
_cell_angle_gamma    131.317

_space_group_name_H-M_alt    "P 1"
_space_group_IT_number       1

loop_
  _space_group_symop_operation_xyz
  'x, y, z'

loop_
  _atom_site_type_symbol
  _atom_site_label
  _atom_site_symmetry_multiplicity
  _atom_site_fract_x
  _atom_site_fract_y
  _atom_site_fract_z
  _atom_site_occupancy
  Rh  Rh1       1.0  0.00000  0.00000  0.00000  1.0000
  Au  Au1       1.0  0.60210  0.20266  0.80476  1.0000
  Au  Au2       1.0  0.39790  0.79734  0.19524  1.0000
  Au  Au3       1.0  0.79734  0.60210  0.39944  1.0000
  Au  Au4       1.0  0.20266  0.39790  0.60056  1.0000
