data_image0
_chemical_formula_structural       Rh9Br5
_chemical_formula_sum              "Rh9 Br5"
_cell_length_a       8.1842
_cell_length_b       8.1842
_cell_length_c       8.51405
_cell_angle_alpha    60.5142
_cell_angle_beta     60.5142
_cell_angle_gamma    33.1999

_space_group_name_H-M_alt    "P 1"
_space_group_IT_number       1

loop_
  _space_group_symop_operation_xyz
  'x, y, z'

loop_
  _atom_site_type_symbol
  _atom_site_label
  _atom_site_symmetry_multiplicity
  _atom_site_fract_x
  _atom_site_fract_y
  _atom_site_fract_z
  _atom_site_occupancy
  Rh  Rh1       1.0  0.54464  0.05403  0.22663  1.0000
  Rh  Rh2       1.0  0.94597  0.45536  0.77337  1.0000
  Rh  Rh3       1.0  0.42430  0.93530  0.93816  1.0000
  Rh  Rh4       1.0  0.98935  0.52247  0.41426  1.0000
  Rh  Rh5       1.0  0.47753  0.01065  0.58574  1.0000
  Rh  Rh6       1.0  0.64543  0.35457  0.50000  1.0000
  Rh  Rh7       1.0  0.06470  0.57570  0.06184  1.0000
  Rh  Rh8       1.0  0.88633  0.39917  0.12928  1.0000
  Rh  Rh9       1.0  0.60083  0.11367  0.87072  1.0000
  Br  Br1       1.0  0.95590  0.21972  0.64816  1.0000
  Br  Br2       1.0  0.34966  0.65034  0.00000  1.0000
  Br  Br3       1.0  0.78028  0.04410  0.35184  1.0000
  Br  Br4       1.0  0.12839  0.61132  0.72259  1.0000
  Br  Br5       1.0  0.38868  0.87161  0.27741  1.0000
