data_image0
_chemical_formula_structural       Rh6Br8
_chemical_formula_sum              "Rh6 Br8"
_cell_length_a       7.64249
_cell_length_b       7.64249
_cell_length_c       7.64249
_cell_angle_alpha    60
_cell_angle_beta     60
_cell_angle_gamma    60

_space_group_name_H-M_alt    "P 1"
_space_group_IT_number       1

loop_
  _space_group_symop_operation_xyz
  'x, y, z'

loop_
  _atom_site_type_symbol
  _atom_site_label
  _atom_site_symmetry_multiplicity
  _atom_site_fract_x
  _atom_site_fract_y
  _atom_site_fract_z
  _atom_site_occupancy
  Rh  Rh1       1.0  0.50000  0.50000  0.50000  1.0000
  Rh  Rh2       1.0  0.12500  0.12500  0.62500  1.0000
  Rh  Rh3       1.0  0.12500  0.12500  0.12500  1.0000
  Rh  Rh4       1.0  0.12500  0.62500  0.12500  1.0000
  Rh  Rh5       1.0  0.75000  0.75000  0.75000  1.0000
  Rh  Rh6       1.0  0.62500  0.12500  0.12500  1.0000
  Br  Br1       1.0  0.88311  0.88311  0.88311  1.0000
  Br  Br2       1.0  0.88311  0.88311  0.35067  1.0000
  Br  Br3       1.0  0.36689  0.36689  0.36689  1.0000
  Br  Br4       1.0  0.36689  0.36689  0.89933  1.0000
  Br  Br5       1.0  0.88311  0.35067  0.88311  1.0000
  Br  Br6       1.0  0.36689  0.89933  0.36689  1.0000
  Br  Br7       1.0  0.89933  0.36689  0.36689  1.0000
  Br  Br8       1.0  0.35067  0.88311  0.88311  1.0000
