data_image0
_chemical_formula_structural       Rh8Au8
_chemical_formula_sum              "Rh8 Au8"
_cell_length_a       6.08015
_cell_length_b       6.08015
_cell_length_c       8.77288
_cell_angle_alpha    90
_cell_angle_beta     90
_cell_angle_gamma    90

_space_group_name_H-M_alt    "P 1"
_space_group_IT_number       1

loop_
  _space_group_symop_operation_xyz
  'x, y, z'

loop_
  _atom_site_type_symbol
  _atom_site_label
  _atom_site_symmetry_multiplicity
  _atom_site_fract_x
  _atom_site_fract_y
  _atom_site_fract_z
  _atom_site_occupancy
  Rh  Rh1       1.0  0.63335  0.65595  0.00000  1.0000
  Rh  Rh2       1.0  0.34405  0.63335  0.50000  1.0000
  Rh  Rh3       1.0  0.65595  0.36665  0.50000  1.0000
  Rh  Rh4       1.0  0.36665  0.34405  0.00000  1.0000
  Rh  Rh5       1.0  0.50000  0.00000  0.50000  1.0000
  Rh  Rh6       1.0  0.00000  0.50000  0.00000  1.0000
  Rh  Rh7       1.0  0.00000  0.00000  0.75000  1.0000
  Rh  Rh8       1.0  0.00000  0.00000  0.25000  1.0000
  Au  Au1       1.0  0.19375  0.37895  0.71613  1.0000
  Au  Au2       1.0  0.62105  0.19375  0.21613  1.0000
  Au  Au3       1.0  0.37895  0.80625  0.21613  1.0000
  Au  Au4       1.0  0.80625  0.62105  0.71613  1.0000
  Au  Au5       1.0  0.80625  0.62105  0.28387  1.0000
  Au  Au6       1.0  0.37895  0.80625  0.78387  1.0000
  Au  Au7       1.0  0.62105  0.19375  0.78387  1.0000
  Au  Au8       1.0  0.19375  0.37895  0.28387  1.0000
