data_image0
_chemical_formula_structural       Rh2Au6
_chemical_formula_sum              "Rh2 Au6"
_cell_length_a       4.78883
_cell_length_b       4.95511
_cell_length_c       5.79993
_cell_angle_alpha    90
_cell_angle_beta     90
_cell_angle_gamma    90

_space_group_name_H-M_alt    "P 1"
_space_group_IT_number       1

loop_
  _space_group_symop_operation_xyz
  'x, y, z'

loop_
  _atom_site_type_symbol
  _atom_site_label
  _atom_site_symmetry_multiplicity
  _atom_site_fract_x
  _atom_site_fract_y
  _atom_site_fract_z
  _atom_site_occupancy
  Rh  Rh1       1.0  0.50000  0.67142  0.50000  1.0000
  Rh  Rh2       1.0  0.00000  0.32858  0.00000  1.0000
  Au  Au1       1.0  0.50000  0.16773  0.74860  1.0000
  Au  Au2       1.0  0.50000  0.16773  0.25140  1.0000
  Au  Au3       1.0  0.00000  0.83227  0.75140  1.0000
  Au  Au4       1.0  0.00000  0.83227  0.24860  1.0000
  Au  Au5       1.0  0.00000  0.34208  0.50000  1.0000
  Au  Au6       1.0  0.50000  0.65792  0.00000  1.0000
