data_image0
_chemical_formula_structural       BrRh
_chemical_formula_sum              "Br1 Rh1"
_cell_length_a       4.18748
_cell_length_b       4.18748
_cell_length_c       4.18748
_cell_angle_alpha    47.854
_cell_angle_beta     47.854
_cell_angle_gamma    47.854

_space_group_name_H-M_alt    "P 1"
_space_group_IT_number       1

loop_
  _space_group_symop_operation_xyz
  'x, y, z'

loop_
  _atom_site_type_symbol
  _atom_site_label
  _atom_site_symmetry_multiplicity
  _atom_site_fract_x
  _atom_site_fract_y
  _atom_site_fract_z
  _atom_site_occupancy
  Br  Br1       1.0  0.00000  0.00000  0.00000  1.0000
  Rh  Rh1       1.0  0.50000  0.50000  0.50000  1.0000
