data_image0
_chemical_formula_structural       Rh9Au5
_chemical_formula_sum              "Rh9 Au5"
_cell_length_a       6.49492
_cell_length_b       6.49492
_cell_length_c       9.55647
_cell_angle_alpha    56.6421
_cell_angle_beta     56.6421
_cell_angle_gamma    43.1215

_space_group_name_H-M_alt    "P 1"
_space_group_IT_number       1

loop_
  _space_group_symop_operation_xyz
  'x, y, z'

loop_
  _atom_site_type_symbol
  _atom_site_label
  _atom_site_symmetry_multiplicity
  _atom_site_fract_x
  _atom_site_fract_y
  _atom_site_fract_z
  _atom_site_occupancy
  Rh  Rh1       1.0  0.50147  0.21027  0.36095  1.0000
  Rh  Rh2       1.0  0.78973  0.49853  0.63905  1.0000
  Rh  Rh3       1.0  0.24852  0.91158  0.05676  1.0000
  Rh  Rh4       1.0  0.93818  0.62674  0.28633  1.0000
  Rh  Rh5       1.0  0.37326  0.06182  0.71367  1.0000
  Rh  Rh6       1.0  0.64455  0.35545  0.50000  1.0000
  Rh  Rh7       1.0  0.08842  0.75148  0.94324  1.0000
  Rh  Rh8       1.0  0.79321  0.47193  0.15794  1.0000
  Rh  Rh9       1.0  0.52807  0.20679  0.84206  1.0000
  Au  Au1       1.0  0.21696  0.92771  0.57763  1.0000
  Au  Au2       1.0  0.66978  0.33022  0.00000  1.0000
  Au  Au3       1.0  0.07229  0.78304  0.42237  1.0000
  Au  Au4       1.0  0.94259  0.62503  0.79267  1.0000
  Au  Au5       1.0  0.37497  0.05741  0.20733  1.0000
