data_image0
_chemical_formula_structural       Rh8Cl16
_chemical_formula_sum              "Rh8 Cl16"
_cell_length_a       11.7057
_cell_length_b       8.51698
_cell_length_c       5.74467
_cell_angle_alpha    90
_cell_angle_beta     90
_cell_angle_gamma    90

_space_group_name_H-M_alt    "P 1"
_space_group_IT_number       1

loop_
  _space_group_symop_operation_xyz
  'x, y, z'

loop_
  _atom_site_type_symbol
  _atom_site_label
  _atom_site_symmetry_multiplicity
  _atom_site_fract_x
  _atom_site_fract_y
  _atom_site_fract_z
  _atom_site_occupancy
  Rh  Rh1       1.0  0.49982  0.77512  0.00187  1.0000
  Rh  Rh2       1.0  0.00018  0.72488  0.50187  1.0000
  Rh  Rh3       1.0  0.00018  0.27512  0.99813  1.0000
  Rh  Rh4       1.0  0.49982  0.22488  0.49813  1.0000
  Rh  Rh5       1.0  0.50018  0.22488  0.99813  1.0000
  Rh  Rh6       1.0  0.99982  0.27512  0.49813  1.0000
  Rh  Rh7       1.0  0.99982  0.72488  0.00187  1.0000
  Rh  Rh8       1.0  0.50018  0.77512  0.50187  1.0000
  Cl  Cl1       1.0  0.07434  0.50000  0.25000  1.0000
  Cl  Cl2       1.0  0.42566  0.00000  0.75000  1.0000
  Cl  Cl3       1.0  0.92566  0.50000  0.75000  1.0000
  Cl  Cl4       1.0  0.57434  0.00000  0.25000  1.0000
  Cl  Cl5       1.0  0.34172  0.77637  0.25250  1.0000
  Cl  Cl6       1.0  0.15828  0.72363  0.75250  1.0000
  Cl  Cl7       1.0  0.15828  0.27637  0.74750  1.0000
  Cl  Cl8       1.0  0.34172  0.22363  0.24750  1.0000
  Cl  Cl9       1.0  0.65828  0.22363  0.74750  1.0000
  Cl  Cl10      1.0  0.84172  0.27637  0.24750  1.0000
  Cl  Cl11      1.0  0.84172  0.72363  0.25250  1.0000
  Cl  Cl12      1.0  0.65828  0.77637  0.75250  1.0000
  Cl  Cl13      1.0  0.50000  0.50000  0.00000  1.0000
  Cl  Cl14      1.0  0.00000  0.00000  0.50000  1.0000
  Cl  Cl15      1.0  0.00000  0.00000  0.00000  1.0000
  Cl  Cl16      1.0  0.50000  0.50000  0.50000  1.0000
