data_image0
_chemical_formula_structural       Br12Rh8
_chemical_formula_sum              "Br12 Rh8"
_cell_length_a       12.3698
_cell_length_b       6.57963
_cell_length_c       7.05221
_cell_angle_alpha    90
_cell_angle_beta     90
_cell_angle_gamma    90

_space_group_name_H-M_alt    "P 1"
_space_group_IT_number       1

loop_
  _space_group_symop_operation_xyz
  'x, y, z'

loop_
  _atom_site_type_symbol
  _atom_site_label
  _atom_site_symmetry_multiplicity
  _atom_site_fract_x
  _atom_site_fract_y
  _atom_site_fract_z
  _atom_site_occupancy
  Br  Br1       1.0  0.25000  0.96351  0.35724  1.0000
  Br  Br2       1.0  0.75000  0.03649  0.64276  1.0000
  Br  Br3       1.0  0.58938  0.36757  0.33846  1.0000
  Br  Br4       1.0  0.08938  0.63243  0.66154  1.0000
  Br  Br5       1.0  0.41062  0.13243  0.83846  1.0000
  Br  Br6       1.0  0.08938  0.13243  0.83846  1.0000
  Br  Br7       1.0  0.41062  0.63243  0.66154  1.0000
  Br  Br8       1.0  0.91062  0.36757  0.33846  1.0000
  Br  Br9       1.0  0.58938  0.86757  0.16154  1.0000
  Br  Br10      1.0  0.25000  0.46351  0.14276  1.0000
  Br  Br11      1.0  0.91062  0.86757  0.16154  1.0000
  Br  Br12      1.0  0.75000  0.53649  0.85724  1.0000
  Rh  Rh1       1.0  0.25000  0.54256  0.48140  1.0000
  Rh  Rh2       1.0  0.25000  0.18686  0.64317  1.0000
  Rh  Rh3       1.0  0.75000  0.81314  0.35683  1.0000
  Rh  Rh4       1.0  0.75000  0.31314  0.14317  1.0000
  Rh  Rh5       1.0  0.25000  0.68686  0.85683  1.0000
  Rh  Rh6       1.0  0.25000  0.04256  0.01860  1.0000
  Rh  Rh7       1.0  0.75000  0.45744  0.51860  1.0000
  Rh  Rh8       1.0  0.75000  0.95744  0.98140  1.0000
