data_image0
_chemical_formula_structural       RhBr4
_chemical_formula_sum              "Rh1 Br4"
_cell_length_a       7.26729
_cell_length_b       7.26729
_cell_length_c       7.26729
_cell_angle_alpha    92.5813
_cell_angle_beta     92.5813
_cell_angle_gamma    155.495

_space_group_name_H-M_alt    "P 1"
_space_group_IT_number       1

loop_
  _space_group_symop_operation_xyz
  'x, y, z'

loop_
  _atom_site_type_symbol
  _atom_site_label
  _atom_site_symmetry_multiplicity
  _atom_site_fract_x
  _atom_site_fract_y
  _atom_site_fract_z
  _atom_site_occupancy
  Rh  Rh1       1.0  0.00000  0.00000  0.00000  1.0000
  Br  Br1       1.0  0.54737  0.71718  0.26456  1.0000
  Br  Br2       1.0  0.45263  0.28282  0.73544  1.0000
  Br  Br3       1.0  0.28282  0.54737  0.83019  1.0000
  Br  Br4       1.0  0.71718  0.45263  0.16981  1.0000
