data_image0
_chemical_formula_structural       Rh2Br4
_chemical_formula_sum              "Rh2 Br4"
_cell_length_a       3.9114
_cell_length_b       5.90951
_cell_length_c       6.10285
_cell_angle_alpha    90
_cell_angle_beta     90
_cell_angle_gamma    90

_space_group_name_H-M_alt    "P 1"
_space_group_IT_number       1

loop_
  _space_group_symop_operation_xyz
  'x, y, z'

loop_
  _atom_site_type_symbol
  _atom_site_label
  _atom_site_symmetry_multiplicity
  _atom_site_fract_x
  _atom_site_fract_y
  _atom_site_fract_z
  _atom_site_occupancy
  Rh  Rh1       1.0  0.50000  0.50000  0.50000  1.0000
  Rh  Rh2       1.0  0.00000  0.00000  0.00000  1.0000
  Br  Br1       1.0  0.50000  0.21793  0.82426  1.0000
  Br  Br2       1.0  0.50000  0.78207  0.17574  1.0000
  Br  Br3       1.0  0.00000  0.28207  0.32426  1.0000
  Br  Br4       1.0  0.00000  0.71793  0.67574  1.0000
