data_image0
_chemical_formula_structural       RhF4
_chemical_formula_sum              "Rh1 F4"
_cell_length_a       5.86116
_cell_length_b       5.86116
_cell_length_c       5.86116
_cell_angle_alpha    33.8725
_cell_angle_beta     33.8725
_cell_angle_gamma    33.8726

_space_group_name_H-M_alt    "P 1"
_space_group_IT_number       1

loop_
  _space_group_symop_operation_xyz
  'x, y, z'

loop_
  _atom_site_type_symbol
  _atom_site_label
  _atom_site_symmetry_multiplicity
  _atom_site_fract_x
  _atom_site_fract_y
  _atom_site_fract_z
  _atom_site_occupancy
  Rh  Rh1       1.0  0.00000  0.00000  0.00000  1.0000
  F   F1        1.0  0.62002  0.62002  0.62002  1.0000
  F   F2        1.0  0.20797  0.20797  0.20797  1.0000
  F   F3        1.0  0.79203  0.79203  0.79203  1.0000
  F   F4        1.0  0.37998  0.37998  0.37998  1.0000
