data_image0
_chemical_formula_structural       Rh8Hg16
_chemical_formula_sum              "Rh8 Hg16"
_cell_length_a       5.48885
_cell_length_b       7.8779
_cell_length_c       11.2155
_cell_angle_alpha    90
_cell_angle_beta     90
_cell_angle_gamma    90

_space_group_name_H-M_alt    "P 1"
_space_group_IT_number       1

loop_
  _space_group_symop_operation_xyz
  'x, y, z'

loop_
  _atom_site_type_symbol
  _atom_site_label
  _atom_site_symmetry_multiplicity
  _atom_site_fract_x
  _atom_site_fract_y
  _atom_site_fract_z
  _atom_site_occupancy
  Rh  Rh1       1.0  0.62804  0.79678  0.12246  1.0000
  Rh  Rh2       1.0  0.87196  0.70322  0.62246  1.0000
  Rh  Rh3       1.0  0.87196  0.29678  0.87754  1.0000
  Rh  Rh4       1.0  0.62804  0.20322  0.37754  1.0000
  Rh  Rh5       1.0  0.37196  0.20322  0.87754  1.0000
  Rh  Rh6       1.0  0.12804  0.29678  0.37754  1.0000
  Rh  Rh7       1.0  0.12804  0.70322  0.12246  1.0000
  Rh  Rh8       1.0  0.37196  0.79678  0.62246  1.0000
  Hg  Hg1       1.0  0.47286  0.50000  0.25000  1.0000
  Hg  Hg2       1.0  0.02714  0.00000  0.75000  1.0000
  Hg  Hg3       1.0  0.52714  0.50000  0.75000  1.0000
  Hg  Hg4       1.0  0.97286  0.00000  0.25000  1.0000
  Hg  Hg5       1.0  0.47811  0.86265  0.37158  1.0000
  Hg  Hg6       1.0  0.02189  0.63735  0.87158  1.0000
  Hg  Hg7       1.0  0.02189  0.36265  0.62842  1.0000
  Hg  Hg8       1.0  0.47811  0.13735  0.12842  1.0000
  Hg  Hg9       1.0  0.52189  0.13735  0.62842  1.0000
  Hg  Hg10      1.0  0.97811  0.36265  0.12842  1.0000
  Hg  Hg11      1.0  0.97811  0.63735  0.37158  1.0000
  Hg  Hg12      1.0  0.52189  0.86265  0.87158  1.0000
  Hg  Hg13      1.0  0.50000  0.50000  0.00000  1.0000
  Hg  Hg14      1.0  0.00000  0.00000  0.50000  1.0000
  Hg  Hg15      1.0  0.00000  0.00000  0.00000  1.0000
  Hg  Hg16      1.0  0.50000  0.50000  0.50000  1.0000
