data_image0
_chemical_formula_structural       Rh4F12
_chemical_formula_sum              "Rh4 F12"
_cell_length_a       7.27878
_cell_length_b       7.27878
_cell_length_c       3.97954
_cell_angle_alpha    90
_cell_angle_beta     90
_cell_angle_gamma    119.888

_space_group_name_H-M_alt    "P 1"
_space_group_IT_number       1

loop_
  _space_group_symop_operation_xyz
  'x, y, z'

loop_
  _atom_site_type_symbol
  _atom_site_label
  _atom_site_symmetry_multiplicity
  _atom_site_fract_x
  _atom_site_fract_y
  _atom_site_fract_z
  _atom_site_occupancy
  Rh  Rh1       1.0  0.63036  0.36964  0.00000  1.0000
  Rh  Rh2       1.0  0.36964  0.63036  0.00000  1.0000
  Rh  Rh3       1.0  0.13036  0.86964  0.50000  1.0000
  Rh  Rh4       1.0  0.86964  0.13036  0.50000  1.0000
  F   F1        1.0  0.65885  0.65885  0.06377  1.0000
  F   F2        1.0  0.15885  0.15885  0.43623  1.0000
  F   F3        1.0  0.84115  0.84115  0.56377  1.0000
  F   F4        1.0  0.40020  0.59980  0.50000  1.0000
  F   F5        1.0  0.10068  0.60068  0.75000  1.0000
  F   F6        1.0  0.90020  0.09980  0.00000  1.0000
  F   F7        1.0  0.89932  0.39932  0.25000  1.0000
  F   F8        1.0  0.34115  0.34115  0.93623  1.0000
  F   F9        1.0  0.59980  0.40020  0.50000  1.0000
  F   F10       1.0  0.09980  0.90020  0.00000  1.0000
  F   F11       1.0  0.39932  0.89932  0.25000  1.0000
  F   F12       1.0  0.60068  0.10068  0.75000  1.0000
