data_image0
_chemical_formula_structural       F6Rh2
_chemical_formula_sum              "F6 Rh2"
_cell_length_a       3.07134
_cell_length_b       5.79942
_cell_length_c       5.47615
_cell_angle_alpha    90
_cell_angle_beta     90
_cell_angle_gamma    90

_space_group_name_H-M_alt    "P 1"
_space_group_IT_number       1

loop_
  _space_group_symop_operation_xyz
  'x, y, z'

loop_
  _atom_site_type_symbol
  _atom_site_label
  _atom_site_symmetry_multiplicity
  _atom_site_fract_x
  _atom_site_fract_y
  _atom_site_fract_z
  _atom_site_occupancy
  F   F1        1.0  0.00000  0.31982  0.26442  1.0000
  F   F2        1.0  0.00000  0.31982  0.73558  1.0000
  F   F3        1.0  0.50000  0.68018  0.23558  1.0000
  F   F4        1.0  0.50000  0.68018  0.76442  1.0000
  F   F5        1.0  0.00000  0.96825  0.50000  1.0000
  F   F6        1.0  0.50000  0.03175  0.00000  1.0000
  Rh  Rh1       1.0  0.00000  0.75155  0.00000  1.0000
  Rh  Rh2       1.0  0.50000  0.24845  0.50000  1.0000
