data_image0
_chemical_formula_structural       Rh8I16
_chemical_formula_sum              "Rh8 I16"
_cell_length_a       9.41373
_cell_length_b       11.6221
_cell_length_c       9.08036
_cell_angle_alpha    90
_cell_angle_beta     90
_cell_angle_gamma    90

_space_group_name_H-M_alt    "P 1"
_space_group_IT_number       1

loop_
  _space_group_symop_operation_xyz
  'x, y, z'

loop_
  _atom_site_type_symbol
  _atom_site_label
  _atom_site_symmetry_multiplicity
  _atom_site_fract_x
  _atom_site_fract_y
  _atom_site_fract_z
  _atom_site_occupancy
  Rh  Rh1       1.0  0.51422  0.93511  0.12476  1.0000
  Rh  Rh2       1.0  0.98578  0.56489  0.62476  1.0000
  Rh  Rh3       1.0  0.98578  0.43511  0.87524  1.0000
  Rh  Rh4       1.0  0.51422  0.06489  0.37524  1.0000
  Rh  Rh5       1.0  0.48578  0.06489  0.87524  1.0000
  Rh  Rh6       1.0  0.01422  0.43511  0.37524  1.0000
  Rh  Rh7       1.0  0.01422  0.56489  0.12476  1.0000
  Rh  Rh8       1.0  0.48578  0.93511  0.62476  1.0000
  I   I1        1.0  0.25374  0.50000  0.25000  1.0000
  I   I2        1.0  0.24626  0.00000  0.75000  1.0000
  I   I3        1.0  0.74626  0.50000  0.75000  1.0000
  I   I4        1.0  0.75374  0.00000  0.25000  1.0000
  I   I5        1.0  0.40679  0.85032  0.36866  1.0000
  I   I6        1.0  0.09321  0.64968  0.86866  1.0000
  I   I7        1.0  0.09321  0.35032  0.63134  1.0000
  I   I8        1.0  0.40679  0.14968  0.13134  1.0000
  I   I9        1.0  0.59321  0.14968  0.63134  1.0000
  I   I10       1.0  0.90679  0.35032  0.13134  1.0000
  I   I11       1.0  0.90679  0.64968  0.36866  1.0000
  I   I12       1.0  0.59321  0.85032  0.86866  1.0000
  I   I13       1.0  0.50000  0.50000  0.00000  1.0000
  I   I14       1.0  0.00000  0.00000  0.50000  1.0000
  I   I15       1.0  0.00000  0.00000  0.00000  1.0000
  I   I16       1.0  0.50000  0.50000  0.50000  1.0000
