data_image0
_chemical_formula_structural       Rh6F10
_chemical_formula_sum              "Rh6 F10"
_cell_length_a       3.75041
_cell_length_b       6.44414
_cell_length_c       8.79891
_cell_angle_alpha    90
_cell_angle_beta     90
_cell_angle_gamma    90

_space_group_name_H-M_alt    "P 1"
_space_group_IT_number       1

loop_
  _space_group_symop_operation_xyz
  'x, y, z'

loop_
  _atom_site_type_symbol
  _atom_site_label
  _atom_site_symmetry_multiplicity
  _atom_site_fract_x
  _atom_site_fract_y
  _atom_site_fract_z
  _atom_site_occupancy
  Rh  Rh1       1.0  0.50000  0.34159  0.90089  1.0000
  Rh  Rh2       1.0  0.50000  0.84159  0.59911  1.0000
  Rh  Rh3       1.0  0.00000  0.50000  0.50000  1.0000
  Rh  Rh4       1.0  0.00000  0.00000  0.00000  1.0000
  Rh  Rh5       1.0  0.50000  0.65841  0.09911  1.0000
  Rh  Rh6       1.0  0.50000  0.15841  0.40089  1.0000
  F   F1        1.0  0.50000  0.61717  0.36391  1.0000
  F   F2        1.0  0.50000  0.38283  0.63609  1.0000
  F   F3        1.0  0.00000  0.19810  0.80210  1.0000
  F   F4        1.0  0.50000  0.88283  0.86391  1.0000
  F   F5        1.0  0.00000  0.30190  0.30210  1.0000
  F   F6        1.0  0.00000  0.80190  0.19790  1.0000
  F   F7        1.0  0.00000  0.69810  0.69790  1.0000
  F   F8        1.0  0.00000  0.50000  0.00000  1.0000
  F   F9        1.0  0.00000  0.00000  0.50000  1.0000
  F   F10       1.0  0.50000  0.11717  0.13609  1.0000
