data_image0
_chemical_formula_structural       Rh2F6
_chemical_formula_sum              "Rh2 F6"
_cell_length_a       4.0097
_cell_length_b       3.21721
_cell_length_c       6.98823
_cell_angle_alpha    90
_cell_angle_beta     90
_cell_angle_gamma    90

_space_group_name_H-M_alt    "P 1"
_space_group_IT_number       1

loop_
  _space_group_symop_operation_xyz
  'x, y, z'

loop_
  _atom_site_type_symbol
  _atom_site_label
  _atom_site_symmetry_multiplicity
  _atom_site_fract_x
  _atom_site_fract_y
  _atom_site_fract_z
  _atom_site_occupancy
  Rh  Rh1       1.0  0.50000  0.65494  0.50000  1.0000
  Rh  Rh2       1.0  0.00000  0.34506  0.00000  1.0000
  F   F1        1.0  0.50000  0.15613  0.67246  1.0000
  F   F2        1.0  0.50000  0.15613  0.32754  1.0000
  F   F3        1.0  0.00000  0.84387  0.82754  1.0000
  F   F4        1.0  0.00000  0.84387  0.17246  1.0000
  F   F5        1.0  0.00000  0.54899  0.50000  1.0000
  F   F6        1.0  0.50000  0.45101  0.00000  1.0000
