data_image0
_chemical_formula_structural       Rh4F8
_chemical_formula_sum              "Rh4 F8"
_cell_length_a       6.77016
_cell_length_b       6.77016
_cell_length_c       6.77016
_cell_angle_alpha    60
_cell_angle_beta     60
_cell_angle_gamma    60

_space_group_name_H-M_alt    "P 1"
_space_group_IT_number       1

loop_
  _space_group_symop_operation_xyz
  'x, y, z'

loop_
  _atom_site_type_symbol
  _atom_site_label
  _atom_site_symmetry_multiplicity
  _atom_site_fract_x
  _atom_site_fract_y
  _atom_site_fract_z
  _atom_site_occupancy
  Rh  Rh1       1.0  0.62500  0.62500  0.62500  1.0000
  Rh  Rh2       1.0  0.12500  0.62500  0.62500  1.0000
  Rh  Rh3       1.0  0.62500  0.12500  0.62500  1.0000
  Rh  Rh4       1.0  0.62500  0.62500  0.12500  1.0000
  F   F1        1.0  0.84896  0.45313  0.84896  1.0000
  F   F2        1.0  0.40104  0.40104  0.79687  1.0000
  F   F3        1.0  0.79687  0.40104  0.40104  1.0000
  F   F4        1.0  0.40104  0.40104  0.40104  1.0000
  F   F5        1.0  0.45313  0.84896  0.84896  1.0000
  F   F6        1.0  0.84896  0.84896  0.84896  1.0000
  F   F7        1.0  0.84896  0.84896  0.45313  1.0000
  F   F8        1.0  0.40104  0.79687  0.40104  1.0000
