data_image0
_chemical_formula_structural       Rh10F6
_chemical_formula_sum              "Rh10 F6"
_cell_length_a       6.90177
_cell_length_b       6.90177
_cell_length_c       6.90177
_cell_angle_alpha    98.8336
_cell_angle_beta     98.8336
_cell_angle_gamma    133.858

_space_group_name_H-M_alt    "P 1"
_space_group_IT_number       1

loop_
  _space_group_symop_operation_xyz
  'x, y, z'

loop_
  _atom_site_type_symbol
  _atom_site_label
  _atom_site_symmetry_multiplicity
  _atom_site_fract_x
  _atom_site_fract_y
  _atom_site_fract_z
  _atom_site_occupancy
  Rh  Rh1       1.0  0.51021  0.24726  0.75747  1.0000
  Rh  Rh2       1.0  0.48979  0.75274  0.24253  1.0000
  Rh  Rh3       1.0  0.75274  0.51021  0.26295  1.0000
  Rh  Rh4       1.0  0.24726  0.48979  0.73705  1.0000
  Rh  Rh5       1.0  0.98979  0.74726  0.73705  1.0000
  Rh  Rh6       1.0  0.25274  0.98979  0.24253  1.0000
  Rh  Rh7       1.0  0.25000  0.75000  0.50000  1.0000
  Rh  Rh8       1.0  0.75000  0.25000  0.50000  1.0000
  Rh  Rh9       1.0  0.01021  0.25274  0.26295  1.0000
  Rh  Rh10      1.0  0.74726  0.01021  0.75747  1.0000
  F   F1        1.0  0.76142  0.26142  0.02283  1.0000
  F   F2        1.0  0.73858  0.76142  0.50000  1.0000
  F   F3        1.0  0.26142  0.23858  0.50000  1.0000
  F   F4        1.0  0.23858  0.73858  0.97717  1.0000
  F   F5        1.0  0.75000  0.75000  0.00000  1.0000
  F   F6        1.0  0.25000  0.25000  0.00000  1.0000
