data_image0
_chemical_formula_structural       Rh2Hg3
_chemical_formula_sum              "Rh2 Hg3"
_cell_length_a       4.58298
_cell_length_b       4.58298
_cell_length_c       5.58248
_cell_angle_alpha    90
_cell_angle_beta     90
_cell_angle_gamma    120

_space_group_name_H-M_alt    "P 1"
_space_group_IT_number       1

loop_
  _space_group_symop_operation_xyz
  'x, y, z'

loop_
  _atom_site_type_symbol
  _atom_site_label
  _atom_site_symmetry_multiplicity
  _atom_site_fract_x
  _atom_site_fract_y
  _atom_site_fract_z
  _atom_site_occupancy
  Rh  Rh1       1.0  0.66667  0.33333  0.13992  1.0000
  Rh  Rh2       1.0  0.33333  0.66667  0.86008  1.0000
  Hg  Hg1       1.0  0.66667  0.33333  0.64047  1.0000
  Hg  Hg2       1.0  0.33333  0.66667  0.35953  1.0000
  Hg  Hg3       1.0  0.00000  0.00000  0.00000  1.0000
