data_image0
_chemical_formula_structural       Rh2Hg5
_chemical_formula_sum              "Rh2 Hg5"
_cell_length_a       6.82098
_cell_length_b       6.82098
_cell_length_c       7.33738
_cell_angle_alpha    70.9851
_cell_angle_beta     70.9851
_cell_angle_gamma    26.52

_space_group_name_H-M_alt    "P 1"
_space_group_IT_number       1

loop_
  _space_group_symop_operation_xyz
  'x, y, z'

loop_
  _atom_site_type_symbol
  _atom_site_label
  _atom_site_symmetry_multiplicity
  _atom_site_fract_x
  _atom_site_fract_y
  _atom_site_fract_z
  _atom_site_occupancy
  Rh  Rh1       1.0  0.41254  0.41254  0.76729  1.0000
  Rh  Rh2       1.0  0.58746  0.58746  0.23271  1.0000
  Hg  Hg1       1.0  0.10097  0.10097  0.55774  1.0000
  Hg  Hg2       1.0  0.27548  0.27548  0.17118  1.0000
  Hg  Hg3       1.0  0.72452  0.72452  0.82882  1.0000
  Hg  Hg4       1.0  0.89903  0.89903  0.44226  1.0000
  Hg  Hg5       1.0  0.00000  0.00000  0.00000  1.0000
