data_image0
_chemical_formula_structural       Rh6F20
_chemical_formula_sum              "Rh6 F20"
_cell_length_a       11.3245
_cell_length_b       11.3245
_cell_length_c       3.05125
_cell_angle_alpha    90
_cell_angle_beta     90
_cell_angle_gamma    120

_space_group_name_H-M_alt    "P 1"
_space_group_IT_number       1

loop_
  _space_group_symop_operation_xyz
  'x, y, z'

loop_
  _atom_site_type_symbol
  _atom_site_label
  _atom_site_symmetry_multiplicity
  _atom_site_fract_x
  _atom_site_fract_y
  _atom_site_fract_z
  _atom_site_occupancy
  Rh  Rh1       1.0  0.59534  0.75379  0.25000  1.0000
  Rh  Rh2       1.0  0.24621  0.84155  0.25000  1.0000
  Rh  Rh3       1.0  0.15845  0.40466  0.25000  1.0000
  Rh  Rh4       1.0  0.40466  0.24621  0.75000  1.0000
  Rh  Rh5       1.0  0.75379  0.15845  0.75000  1.0000
  Rh  Rh6       1.0  0.84155  0.59534  0.75000  1.0000
  F   F1        1.0  0.80580  0.06429  0.25000  1.0000
  F   F2        1.0  0.93571  0.74151  0.25000  1.0000
  F   F3        1.0  0.25849  0.19420  0.25000  1.0000
  F   F4        1.0  0.19420  0.93571  0.75000  1.0000
  F   F5        1.0  0.06429  0.25849  0.75000  1.0000
  F   F6        1.0  0.74151  0.80580  0.75000  1.0000
  F   F7        1.0  0.61751  0.09422  0.25000  1.0000
  F   F8        1.0  0.90578  0.52329  0.25000  1.0000
  F   F9        1.0  0.47671  0.38249  0.25000  1.0000
  F   F10       1.0  0.38249  0.90578  0.75000  1.0000
  F   F11       1.0  0.09422  0.47671  0.75000  1.0000
  F   F12       1.0  0.52329  0.61751  0.75000  1.0000
  F   F13       1.0  0.85433  0.28896  0.25000  1.0000
  F   F14       1.0  0.71104  0.56537  0.25000  1.0000
  F   F15       1.0  0.43463  0.14567  0.25000  1.0000
  F   F16       1.0  0.14567  0.71104  0.75000  1.0000
  F   F17       1.0  0.28896  0.43463  0.75000  1.0000
  F   F18       1.0  0.56537  0.85433  0.75000  1.0000
  F   F19       1.0  0.66667  0.33333  0.75000  1.0000
  F   F20       1.0  0.33333  0.66667  0.25000  1.0000
