data_image0
_chemical_formula_structural       Rh9F8
_chemical_formula_sum              "Rh9 F8"
_cell_length_a       7.4211
_cell_length_b       7.4211
_cell_length_c       7.4211
_cell_angle_alpha    60
_cell_angle_beta     60
_cell_angle_gamma    60

_space_group_name_H-M_alt    "P 1"
_space_group_IT_number       1

loop_
  _space_group_symop_operation_xyz
  'x, y, z'

loop_
  _atom_site_type_symbol
  _atom_site_label
  _atom_site_symmetry_multiplicity
  _atom_site_fract_x
  _atom_site_fract_y
  _atom_site_fract_z
  _atom_site_occupancy
  Rh  Rh1       1.0  0.50000  0.50000  0.50000  1.0000
  Rh  Rh2       1.0  0.88559  0.34322  0.88559  1.0000
  Rh  Rh3       1.0  0.11441  0.11441  0.65678  1.0000
  Rh  Rh4       1.0  0.65678  0.11441  0.11441  1.0000
  Rh  Rh5       1.0  0.11441  0.11441  0.11441  1.0000
  Rh  Rh6       1.0  0.34322  0.88559  0.88559  1.0000
  Rh  Rh7       1.0  0.88559  0.88559  0.88559  1.0000
  Rh  Rh8       1.0  0.88559  0.88559  0.34322  1.0000
  Rh  Rh9       1.0  0.11441  0.65678  0.11441  1.0000
  F   F1        1.0  0.75000  0.75000  0.75000  1.0000
  F   F2        1.0  0.25000  0.25000  0.25000  1.0000
  F   F3        1.0  0.31109  0.31109  0.68891  1.0000
  F   F4        1.0  0.31109  0.68891  0.68891  1.0000
  F   F5        1.0  0.68891  0.31109  0.31109  1.0000
  F   F6        1.0  0.31109  0.68891  0.31109  1.0000
  F   F7        1.0  0.68891  0.31109  0.68891  1.0000
  F   F8        1.0  0.68891  0.68891  0.31109  1.0000
