data_image0
_chemical_formula_structural       Hg9Rh13
_chemical_formula_sum              "Hg9 Rh13"
_cell_length_a       9.05141
_cell_length_b       9.05141
_cell_length_c       5.48858
_cell_angle_alpha    90
_cell_angle_beta     90
_cell_angle_gamma    120

_space_group_name_H-M_alt    "P 1"
_space_group_IT_number       1

loop_
  _space_group_symop_operation_xyz
  'x, y, z'

loop_
  _atom_site_type_symbol
  _atom_site_label
  _atom_site_symmetry_multiplicity
  _atom_site_fract_x
  _atom_site_fract_y
  _atom_site_fract_z
  _atom_site_occupancy
  Hg  Hg1       1.0  0.00000  0.00000  0.50000  1.0000
  Hg  Hg2       1.0  0.33333  0.66667  0.74764  1.0000
  Hg  Hg3       1.0  0.66667  0.33333  0.25236  1.0000
  Hg  Hg4       1.0  0.19082  0.80918  0.25248  1.0000
  Hg  Hg5       1.0  0.19082  0.38165  0.25248  1.0000
  Hg  Hg6       1.0  0.61835  0.80918  0.25248  1.0000
  Hg  Hg7       1.0  0.38165  0.19082  0.74752  1.0000
  Hg  Hg8       1.0  0.80918  0.61835  0.74752  1.0000
  Hg  Hg9       1.0  0.80918  0.19082  0.74752  1.0000
  Rh  Rh1       1.0  0.00000  0.00000  0.00000  1.0000
  Rh  Rh2       1.0  0.50000  0.00000  0.00000  1.0000
  Rh  Rh3       1.0  0.00000  0.50000  0.00000  1.0000
  Rh  Rh4       1.0  0.50000  0.50000  0.00000  1.0000
  Rh  Rh5       1.0  0.50000  0.00000  0.50000  1.0000
  Rh  Rh6       1.0  0.00000  0.50000  0.50000  1.0000
  Rh  Rh7       1.0  0.50000  0.50000  0.50000  1.0000
  Rh  Rh8       1.0  0.16196  0.83804  0.75644  1.0000
  Rh  Rh9       1.0  0.16196  0.32392  0.75644  1.0000
  Rh  Rh10      1.0  0.67608  0.83804  0.75644  1.0000
  Rh  Rh11      1.0  0.32392  0.16196  0.24356  1.0000
  Rh  Rh12      1.0  0.83804  0.67608  0.24356  1.0000
  Rh  Rh13      1.0  0.83804  0.16196  0.24356  1.0000
