data_image0
_chemical_formula_structural       RhF4
_chemical_formula_sum              "Rh1 F4"
_cell_length_a       4.66345
_cell_length_b       4.66345
_cell_length_c       4.66345
_cell_angle_alpha    95.0891
_cell_angle_beta     95.0891
_cell_angle_gamma    145.345

_space_group_name_H-M_alt    "P 1"
_space_group_IT_number       1

loop_
  _space_group_symop_operation_xyz
  'x, y, z'

loop_
  _atom_site_type_symbol
  _atom_site_label
  _atom_site_symmetry_multiplicity
  _atom_site_fract_x
  _atom_site_fract_y
  _atom_site_fract_z
  _atom_site_occupancy
  Rh  Rh1       1.0  0.00000  0.00000  0.00000  1.0000
  F   F1        1.0  0.74708  0.54399  0.29107  1.0000
  F   F2        1.0  0.45601  0.74708  0.20309  1.0000
  F   F3        1.0  0.54399  0.25292  0.79691  1.0000
  F   F4        1.0  0.25292  0.45601  0.70893  1.0000
