data_image0
_chemical_formula_structural       Rh2F6
_chemical_formula_sum              "Rh2 F6"
_cell_length_a       6.2839
_cell_length_b       6.2839
_cell_length_c       3.08487
_cell_angle_alpha    90
_cell_angle_beta     90
_cell_angle_gamma    120

_space_group_name_H-M_alt    "P 1"
_space_group_IT_number       1

loop_
  _space_group_symop_operation_xyz
  'x, y, z'

loop_
  _atom_site_type_symbol
  _atom_site_label
  _atom_site_symmetry_multiplicity
  _atom_site_fract_x
  _atom_site_fract_y
  _atom_site_fract_z
  _atom_site_occupancy
  Rh  Rh1       1.0  0.33333  0.66667  0.75000  1.0000
  Rh  Rh2       1.0  0.66667  0.33333  0.25000  1.0000
  F   F1        1.0  0.20818  0.41636  0.25000  1.0000
  F   F2        1.0  0.58364  0.79182  0.25000  1.0000
  F   F3        1.0  0.20818  0.79182  0.25000  1.0000
  F   F4        1.0  0.79182  0.58364  0.75000  1.0000
  F   F5        1.0  0.41636  0.20818  0.75000  1.0000
  F   F6        1.0  0.79182  0.20818  0.75000  1.0000
