data_image0
_chemical_formula_structural       Rh10Hg6
_chemical_formula_sum              "Rh10 Hg6"
_cell_length_a       7.84591
_cell_length_b       7.84591
_cell_length_c       7.84591
_cell_angle_alpha    96.2212
_cell_angle_beta     96.2212
_cell_angle_gamma    141.56

_space_group_name_H-M_alt    "P 1"
_space_group_IT_number       1

loop_
  _space_group_symop_operation_xyz
  'x, y, z'

loop_
  _atom_site_type_symbol
  _atom_site_label
  _atom_site_symmetry_multiplicity
  _atom_site_fract_x
  _atom_site_fract_y
  _atom_site_fract_z
  _atom_site_occupancy
  Rh  Rh1       1.0  0.56217  0.24181  0.80398  1.0000
  Rh  Rh2       1.0  0.43783  0.75819  0.19602  1.0000
  Rh  Rh3       1.0  0.75819  0.56217  0.32036  1.0000
  Rh  Rh4       1.0  0.24181  0.43783  0.67964  1.0000
  Rh  Rh5       1.0  0.93783  0.74181  0.67964  1.0000
  Rh  Rh6       1.0  0.25819  0.93783  0.19602  1.0000
  Rh  Rh7       1.0  0.25000  0.75000  0.50000  1.0000
  Rh  Rh8       1.0  0.75000  0.25000  0.50000  1.0000
  Rh  Rh9       1.0  0.06217  0.25819  0.32036  1.0000
  Rh  Rh10      1.0  0.74181  0.06217  0.80398  1.0000
  Hg  Hg1       1.0  0.81402  0.31402  0.12805  1.0000
  Hg  Hg2       1.0  0.68598  0.81402  0.50000  1.0000
  Hg  Hg3       1.0  0.31402  0.18598  0.50000  1.0000
  Hg  Hg4       1.0  0.18598  0.68598  0.87195  1.0000
  Hg  Hg5       1.0  0.75000  0.75000  0.00000  1.0000
  Hg  Hg6       1.0  0.25000  0.25000  0.00000  1.0000
