data_image0
_chemical_formula_structural       Rh2I4
_chemical_formula_sum              "Rh2 I4"
_cell_length_a       4.15496
_cell_length_b       6.279
_cell_length_c       6.55034
_cell_angle_alpha    90
_cell_angle_beta     90
_cell_angle_gamma    90

_space_group_name_H-M_alt    "P 1"
_space_group_IT_number       1

loop_
  _space_group_symop_operation_xyz
  'x, y, z'

loop_
  _atom_site_type_symbol
  _atom_site_label
  _atom_site_symmetry_multiplicity
  _atom_site_fract_x
  _atom_site_fract_y
  _atom_site_fract_z
  _atom_site_occupancy
  Rh  Rh1       1.0  0.50000  0.50000  0.50000  1.0000
  Rh  Rh2       1.0  0.00000  0.00000  0.00000  1.0000
  I   I1        1.0  0.50000  0.21804  0.82536  1.0000
  I   I2        1.0  0.50000  0.78196  0.17464  1.0000
  I   I3        1.0  0.00000  0.28196  0.32536  1.0000
  I   I4        1.0  0.00000  0.71804  0.67464  1.0000
