data_image0
_chemical_formula_structural       Rh8Cl12
_chemical_formula_sum              "Rh8 Cl12"
_cell_length_a       3.45432
_cell_length_b       8.50402
_cell_length_c       16.9654
_cell_angle_alpha    90
_cell_angle_beta     90
_cell_angle_gamma    90

_space_group_name_H-M_alt    "P 1"
_space_group_IT_number       1

loop_
  _space_group_symop_operation_xyz
  'x, y, z'

loop_
  _atom_site_type_symbol
  _atom_site_label
  _atom_site_symmetry_multiplicity
  _atom_site_fract_x
  _atom_site_fract_y
  _atom_site_fract_z
  _atom_site_occupancy
  Rh  Rh1       1.0  0.25000  0.79246  0.84561  1.0000
  Rh  Rh2       1.0  0.75000  0.20754  0.15439  1.0000
  Rh  Rh3       1.0  0.75000  0.29246  0.65439  1.0000
  Rh  Rh4       1.0  0.25000  0.70754  0.34561  1.0000
  Rh  Rh5       1.0  0.25000  0.07504  0.58746  1.0000
  Rh  Rh6       1.0  0.75000  0.92496  0.41254  1.0000
  Rh  Rh7       1.0  0.75000  0.57504  0.91254  1.0000
  Rh  Rh8       1.0  0.25000  0.42496  0.08746  1.0000
  Cl  Cl1       1.0  0.25000  0.16067  0.72400  1.0000
  Cl  Cl2       1.0  0.75000  0.83933  0.27600  1.0000
  Cl  Cl3       1.0  0.75000  0.66067  0.77600  1.0000
  Cl  Cl4       1.0  0.25000  0.33933  0.22400  1.0000
  Cl  Cl5       1.0  0.25000  0.10795  0.43905  1.0000
  Cl  Cl6       1.0  0.75000  0.89205  0.56095  1.0000
  Cl  Cl7       1.0  0.75000  0.60795  0.06095  1.0000
  Cl  Cl8       1.0  0.25000  0.39205  0.93905  1.0000
  Cl  Cl9       1.0  0.25000  0.06156  0.09679  1.0000
  Cl  Cl10      1.0  0.75000  0.93844  0.90321  1.0000
  Cl  Cl11      1.0  0.75000  0.56156  0.40321  1.0000
  Cl  Cl12      1.0  0.25000  0.43844  0.59679  1.0000
