data_image0
_chemical_formula_structural       Rh16F7
_chemical_formula_sum              "Rh16 F7"
_cell_length_a       7.52981
_cell_length_b       7.52981
_cell_length_c       7.52981
_cell_angle_alpha    109.471
_cell_angle_beta     109.471
_cell_angle_gamma    109.471

_space_group_name_H-M_alt    "P 1"
_space_group_IT_number       1

loop_
  _space_group_symop_operation_xyz
  'x, y, z'

loop_
  _atom_site_type_symbol
  _atom_site_label
  _atom_site_symmetry_multiplicity
  _atom_site_fract_x
  _atom_site_fract_y
  _atom_site_fract_z
  _atom_site_occupancy
  Rh  Rh1       1.0  0.00000  0.25785  0.62342  1.0000
  Rh  Rh2       1.0  0.62342  0.25785  0.00000  1.0000
  Rh  Rh3       1.0  0.37658  0.37658  0.63443  1.0000
  Rh  Rh4       1.0  0.63443  0.37658  0.37658  1.0000
  Rh  Rh5       1.0  0.74215  0.36557  0.74215  1.0000
  Rh  Rh6       1.0  0.69684  0.69684  0.69684  1.0000
  Rh  Rh7       1.0  0.00000  0.00000  0.30316  1.0000
  Rh  Rh8       1.0  0.30316  0.00000  0.00000  1.0000
  Rh  Rh9       1.0  0.00000  0.30316  0.00000  1.0000
  Rh  Rh10      1.0  1.00000  0.62342  0.25785  1.0000
  Rh  Rh11      1.0  0.36557  0.74215  0.74215  1.0000
  Rh  Rh12      1.0  0.74215  0.74215  0.36557  1.0000
  Rh  Rh13      1.0  0.25785  0.62342  0.00000  1.0000
  Rh  Rh14      1.0  0.62342  0.00000  0.25785  1.0000
  Rh  Rh15      1.0  0.25785  0.00000  0.62342  1.0000
  Rh  Rh16      1.0  0.37658  0.63443  0.37658  1.0000
  F   F1        1.0  0.50000  0.00000  0.50000  1.0000
  F   F2        1.0  0.00000  0.50000  0.50000  1.0000
  F   F3        1.0  0.50000  0.50000  0.00000  1.0000
  F   F4        1.0  0.00000  0.78811  0.00000  1.0000
  F   F5        1.0  0.78811  0.00000  0.00000  1.0000
  F   F6        1.0  0.00000  0.00000  0.78811  1.0000
  F   F7        1.0  0.21189  0.21189  0.21189  1.0000
