data_image0
_chemical_formula_structural       Rh6F6
_chemical_formula_sum              "Rh6 F6"
_cell_length_a       3.70097
_cell_length_b       3.70097
_cell_length_c       18.2261
_cell_angle_alpha    90
_cell_angle_beta     90
_cell_angle_gamma    120

_space_group_name_H-M_alt    "P 1"
_space_group_IT_number       1

loop_
  _space_group_symop_operation_xyz
  'x, y, z'

loop_
  _atom_site_type_symbol
  _atom_site_label
  _atom_site_symmetry_multiplicity
  _atom_site_fract_x
  _atom_site_fract_y
  _atom_site_fract_z
  _atom_site_occupancy
  Rh  Rh1       1.0  0.33333  0.66667  0.75000  1.0000
  Rh  Rh2       1.0  0.66667  0.33333  0.25000  1.0000
  Rh  Rh3       1.0  0.33333  0.66667  0.12251  1.0000
  Rh  Rh4       1.0  0.66667  0.33333  0.62251  1.0000
  Rh  Rh5       1.0  0.66667  0.33333  0.87749  1.0000
  Rh  Rh6       1.0  0.33333  0.66667  0.37749  1.0000
  F   F1        1.0  0.33333  0.66667  0.25000  1.0000
  F   F2        1.0  0.66667  0.33333  0.75000  1.0000
  F   F3        1.0  0.00000  0.00000  0.08256  1.0000
  F   F4        1.0  0.00000  0.00000  0.58256  1.0000
  F   F5        1.0  0.00000  0.00000  0.91744  1.0000
  F   F6        1.0  0.00000  0.00000  0.41744  1.0000
