data_image0
_chemical_formula_structural       Hg10Rh6
_chemical_formula_sum              "Hg10 Rh6"
_cell_length_a       7.85984
_cell_length_b       7.85984
_cell_length_c       7.85984
_cell_angle_alpha    125.618
_cell_angle_beta     125.618
_cell_angle_gamma    80.5163

_space_group_name_H-M_alt    "P 1"
_space_group_IT_number       1

loop_
  _space_group_symop_operation_xyz
  'x, y, z'

loop_
  _atom_site_type_symbol
  _atom_site_label
  _atom_site_symmetry_multiplicity
  _atom_site_fract_x
  _atom_site_fract_y
  _atom_site_fract_z
  _atom_site_occupancy
  Hg  Hg1       1.0  0.50226  0.68774  0.50000  1.0000
  Hg  Hg2       1.0  0.49774  0.31226  0.50000  1.0000
  Hg  Hg3       1.0  0.50000  0.50000  0.00000  1.0000
  Hg  Hg4       1.0  0.00000  0.00000  0.00000  1.0000
  Hg  Hg5       1.0  0.18774  0.00226  0.50000  1.0000
  Hg  Hg6       1.0  0.00226  0.50226  0.81452  1.0000
  Hg  Hg7       1.0  0.68774  0.18774  0.18548  1.0000
  Hg  Hg8       1.0  0.31226  0.81226  0.81452  1.0000
  Hg  Hg9       1.0  0.99774  0.49774  0.18548  1.0000
  Hg  Hg10      1.0  0.81226  0.99774  0.50000  1.0000
  Rh  Rh1       1.0  0.86193  0.63807  0.50000  1.0000
  Rh  Rh2       1.0  0.63807  0.13807  0.77614  1.0000
  Rh  Rh3       1.0  0.36193  0.86193  0.22386  1.0000
  Rh  Rh4       1.0  0.13807  0.36193  0.50000  1.0000
  Rh  Rh5       1.0  0.25000  0.25000  0.00000  1.0000
  Rh  Rh6       1.0  0.75000  0.75000  0.00000  1.0000
