data_image0
_chemical_formula_structural       Rh4Hg12
_chemical_formula_sum              "Rh4 Hg12"
_cell_length_a       9.4219
_cell_length_b       9.4219
_cell_length_c       5.95681
_cell_angle_alpha    90
_cell_angle_beta     90
_cell_angle_gamma    142.91

_space_group_name_H-M_alt    "P 1"
_space_group_IT_number       1

loop_
  _space_group_symop_operation_xyz
  'x, y, z'

loop_
  _atom_site_type_symbol
  _atom_site_label
  _atom_site_symmetry_multiplicity
  _atom_site_fract_x
  _atom_site_fract_y
  _atom_site_fract_z
  _atom_site_occupancy
  Rh  Rh1       1.0  0.61339  0.38661  0.00000  1.0000
  Rh  Rh2       1.0  0.38661  0.61339  0.00000  1.0000
  Rh  Rh3       1.0  0.11339  0.88661  0.50000  1.0000
  Rh  Rh4       1.0  0.88661  0.11339  0.50000  1.0000
  Hg  Hg1       1.0  0.75106  0.75106  0.25066  1.0000
  Hg  Hg2       1.0  0.25106  0.25106  0.24934  1.0000
  Hg  Hg3       1.0  0.74894  0.74894  0.75066  1.0000
  Hg  Hg4       1.0  0.37330  0.62670  0.50000  1.0000
  Hg  Hg5       1.0  0.99914  0.49914  0.75000  1.0000
  Hg  Hg6       1.0  0.87330  0.12670  0.00000  1.0000
  Hg  Hg7       1.0  0.00086  0.50086  0.25000  1.0000
  Hg  Hg8       1.0  0.24894  0.24894  0.74934  1.0000
  Hg  Hg9       1.0  0.62670  0.37330  0.50000  1.0000
  Hg  Hg10      1.0  0.12670  0.87330  0.00000  1.0000
  Hg  Hg11      1.0  0.50086  0.00086  0.25000  1.0000
  Hg  Hg12      1.0  0.49914  0.99914  0.75000  1.0000
