data_image0
_chemical_formula_structural       I10Rh6
_chemical_formula_sum              "I10 Rh6"
_cell_length_a       9.70544
_cell_length_b       9.70544
_cell_length_c       9.70544
_cell_angle_alpha    136.672
_cell_angle_beta     136.672
_cell_angle_gamma    62.9431

_space_group_name_H-M_alt    "P 1"
_space_group_IT_number       1

loop_
  _space_group_symop_operation_xyz
  'x, y, z'

loop_
  _atom_site_type_symbol
  _atom_site_label
  _atom_site_symmetry_multiplicity
  _atom_site_fract_x
  _atom_site_fract_y
  _atom_site_fract_z
  _atom_site_occupancy
  I   I1        1.0  0.51989  0.66538  0.50000  1.0000
  I   I2        1.0  0.48011  0.33462  0.50000  1.0000
  I   I3        1.0  0.50000  0.50000  0.00000  1.0000
  I   I4        1.0  0.00000  0.00000  0.00000  1.0000
  I   I5        1.0  0.16538  0.01989  0.50000  1.0000
  I   I6        1.0  0.01989  0.51989  0.85451  1.0000
  I   I7        1.0  0.66538  0.16538  0.14549  1.0000
  I   I8        1.0  0.33462  0.83462  0.85451  1.0000
  I   I9        1.0  0.98011  0.48011  0.14549  1.0000
  I   I10       1.0  0.83462  0.98011  0.50000  1.0000
  Rh  Rh1       1.0  0.66420  0.83580  0.50000  1.0000
  Rh  Rh2       1.0  0.83580  0.33580  0.17160  1.0000
  Rh  Rh3       1.0  0.16420  0.66420  0.82840  1.0000
  Rh  Rh4       1.0  0.33580  0.16420  0.50000  1.0000
  Rh  Rh5       1.0  0.25000  0.25000  0.00000  1.0000
  Rh  Rh6       1.0  0.75000  0.75000  1.00000  1.0000
