data_image0
_chemical_formula_structural       I9Rh13
_chemical_formula_sum              "I9 Rh13"
_cell_length_a       8.69459
_cell_length_b       8.69459
_cell_length_c       6.56215
_cell_angle_alpha    90
_cell_angle_beta     90
_cell_angle_gamma    120

_space_group_name_H-M_alt    "P 1"
_space_group_IT_number       1

loop_
  _space_group_symop_operation_xyz
  'x, y, z'

loop_
  _atom_site_type_symbol
  _atom_site_label
  _atom_site_symmetry_multiplicity
  _atom_site_fract_x
  _atom_site_fract_y
  _atom_site_fract_z
  _atom_site_occupancy
  I   I1        1.0  0.00000  0.00000  0.50000  1.0000
  I   I2        1.0  0.33333  0.66667  0.67911  1.0000
  I   I3        1.0  0.66667  0.33333  0.32089  1.0000
  I   I4        1.0  0.19386  0.80614  0.20928  1.0000
  I   I5        1.0  0.19386  0.38772  0.20928  1.0000
  I   I6        1.0  0.61228  0.80614  0.20928  1.0000
  I   I7        1.0  0.38772  0.19386  0.79072  1.0000
  I   I8        1.0  0.80614  0.61228  0.79072  1.0000
  I   I9        1.0  0.80614  0.19386  0.79072  1.0000
  Rh  Rh1       1.0  0.00000  0.00000  0.00000  1.0000
  Rh  Rh2       1.0  0.50000  0.00000  0.00000  1.0000
  Rh  Rh3       1.0  1.00000  0.50000  0.00000  1.0000
  Rh  Rh4       1.0  0.50000  0.50000  0.00000  1.0000
  Rh  Rh5       1.0  0.50000  0.00000  0.50000  1.0000
  Rh  Rh6       1.0  1.00000  0.50000  0.50000  1.0000
  Rh  Rh7       1.0  0.50000  0.50000  0.50000  1.0000
  Rh  Rh8       1.0  0.15931  0.84069  0.76268  1.0000
  Rh  Rh9       1.0  0.15931  0.31861  0.76268  1.0000
  Rh  Rh10      1.0  0.68139  0.84069  0.76268  1.0000
  Rh  Rh11      1.0  0.31861  0.15931  0.23732  1.0000
  Rh  Rh12      1.0  0.84069  0.68139  0.23732  1.0000
  Rh  Rh13      1.0  0.84069  0.15931  0.23732  1.0000
