data_image0
_chemical_formula_structural       Rh4I8
_chemical_formula_sum              "Rh4 I8"
_cell_length_a       10.8955
_cell_length_b       10.8955
_cell_length_c       14.904
_cell_angle_alpha    49.228
_cell_angle_beta     49.228
_cell_angle_gamma    20.6492

_space_group_name_H-M_alt    "P 1"
_space_group_IT_number       1

loop_
  _space_group_symop_operation_xyz
  'x, y, z'

loop_
  _atom_site_type_symbol
  _atom_site_label
  _atom_site_symmetry_multiplicity
  _atom_site_fract_x
  _atom_site_fract_y
  _atom_site_fract_z
  _atom_site_occupancy
  Rh  Rh1       1.0  0.70155  0.70155  0.95554  1.0000
  Rh  Rh2       1.0  0.29845  0.29845  0.04446  1.0000
  Rh  Rh3       1.0  0.34336  0.34336  0.44049  1.0000
  Rh  Rh4       1.0  0.65664  0.65664  0.55951  1.0000
  I   I1        1.0  0.09098  0.09098  0.03218  1.0000
  I   I2        1.0  0.90902  0.90902  0.96782  1.0000
  I   I3        1.0  0.89637  0.89637  0.49833  1.0000
  I   I4        1.0  0.10363  0.10363  0.50167  1.0000
  I   I5        1.0  0.68921  0.68921  0.15186  1.0000
  I   I6        1.0  0.31079  0.31079  0.84814  1.0000
  I   I7        1.0  0.17970  0.17970  0.65243  1.0000
  I   I8        1.0  0.82030  0.82030  0.34757  1.0000
