data_image0
_chemical_formula_structural       Rh3I6
_chemical_formula_sum              "Rh3 I6"
_cell_length_a       5.34317
_cell_length_b       5.34317
_cell_length_c       11.5778
_cell_angle_alpha    90
_cell_angle_beta     90
_cell_angle_gamma    120

_space_group_name_H-M_alt    "P 1"
_space_group_IT_number       1

loop_
  _space_group_symop_operation_xyz
  'x, y, z'

loop_
  _atom_site_type_symbol
  _atom_site_label
  _atom_site_symmetry_multiplicity
  _atom_site_fract_x
  _atom_site_fract_y
  _atom_site_fract_z
  _atom_site_occupancy
  Rh  Rh1       1.0  0.00000  0.50000  0.16667  1.0000
  Rh  Rh2       1.0  0.50000  0.50000  0.83333  1.0000
  Rh  Rh3       1.0  0.50000  0.00000  0.50000  1.0000
  I   I1        1.0  0.83292  0.66585  0.50000  1.0000
  I   I2        1.0  0.16708  0.83292  0.83333  1.0000
  I   I3        1.0  0.66585  0.83292  0.16667  1.0000
  I   I4        1.0  0.16708  0.33415  0.50000  1.0000
  I   I5        1.0  0.83292  0.16708  0.83333  1.0000
  I   I6        1.0  0.33415  0.16708  0.16667  1.0000
