data_image0
_chemical_formula_structural       Rh6I16
_chemical_formula_sum              "Rh6 I16"
_cell_length_a       6.71641
_cell_length_b       7.15756
_cell_length_c       15.1906
_cell_angle_alpha    79.1808
_cell_angle_beta     90
_cell_angle_gamma    90

_space_group_name_H-M_alt    "P 1"
_space_group_IT_number       1

loop_
  _space_group_symop_operation_xyz
  'x, y, z'

loop_
  _atom_site_type_symbol
  _atom_site_label
  _atom_site_symmetry_multiplicity
  _atom_site_fract_x
  _atom_site_fract_y
  _atom_site_fract_z
  _atom_site_occupancy
  Rh  Rh1       1.0  0.42017  0.76093  0.74642  1.0000
  Rh  Rh2       1.0  0.57983  0.23907  0.25358  1.0000
  Rh  Rh3       1.0  0.50000  0.00000  0.00000  1.0000
  Rh  Rh4       1.0  0.92017  0.23907  0.75358  1.0000
  Rh  Rh5       1.0  0.07983  0.76093  0.24642  1.0000
  Rh  Rh6       1.0  0.00000  0.00000  0.50000  1.0000
  I   I1        1.0  0.75846  0.58672  0.18316  1.0000
  I   I2        1.0  0.59081  0.09784  0.68772  1.0000
  I   I3        1.0  0.58902  0.73104  0.90958  1.0000
  I   I4        1.0  0.71603  0.22499  0.42283  1.0000
  I   I5        1.0  0.78397  0.22499  0.92283  1.0000
  I   I6        1.0  0.90919  0.09784  0.18772  1.0000
  I   I7        1.0  0.91098  0.73104  0.40958  1.0000
  I   I8        1.0  0.74154  0.58672  0.68316  1.0000
  I   I9        1.0  0.09081  0.90216  0.81228  1.0000
  I   I10       1.0  0.21603  0.77501  0.07717  1.0000
  I   I11       1.0  0.08902  0.26896  0.59042  1.0000
  I   I12       1.0  0.25846  0.41328  0.31684  1.0000
  I   I13       1.0  0.41098  0.26896  0.09042  1.0000
  I   I14       1.0  0.24154  0.41328  0.81684  1.0000
  I   I15       1.0  0.40919  0.90216  0.31228  1.0000
  I   I16       1.0  0.28397  0.77501  0.57717  1.0000
