data_image0
_chemical_formula_structural       Rh4N16
_chemical_formula_sum              "Rh4 N16"
_cell_length_a       4.32545
_cell_length_b       3.98483
_cell_length_c       12.4405
_cell_angle_alpha    90
_cell_angle_beta     90
_cell_angle_gamma    90

_space_group_name_H-M_alt    "P 1"
_space_group_IT_number       1

loop_
  _space_group_symop_operation_xyz
  'x, y, z'

loop_
  _atom_site_type_symbol
  _atom_site_label
  _atom_site_symmetry_multiplicity
  _atom_site_fract_x
  _atom_site_fract_y
  _atom_site_fract_z
  _atom_site_occupancy
  Rh  Rh1       1.0  0.25000  0.03909  0.83898  1.0000
  Rh  Rh2       1.0  0.25000  0.53909  0.66102  1.0000
  Rh  Rh3       1.0  0.75000  0.46091  0.33898  1.0000
  Rh  Rh4       1.0  0.75000  0.96091  0.16102  1.0000
  N   N1        1.0  0.25000  0.12628  0.01302  1.0000
  N   N2        1.0  0.25000  0.03614  0.13094  1.0000
  N   N3        1.0  0.25000  0.86964  0.42440  1.0000
  N   N4        1.0  0.75000  0.46386  0.63094  1.0000
  N   N5        1.0  0.75000  0.37372  0.51302  1.0000
  N   N6        1.0  0.25000  0.62628  0.48698  1.0000
  N   N7        1.0  0.75000  0.13036  0.57560  1.0000
  N   N8        1.0  0.25000  0.36964  0.07560  1.0000
  N   N9        1.0  0.75000  0.47302  0.18407  1.0000
  N   N10       1.0  0.25000  0.52698  0.81593  1.0000
  N   N11       1.0  0.75000  0.96386  0.86906  1.0000
  N   N12       1.0  0.75000  0.63036  0.92440  1.0000
  N   N13       1.0  0.25000  0.53614  0.36906  1.0000
  N   N14       1.0  0.25000  0.02698  0.68407  1.0000
  N   N15       1.0  0.75000  0.87372  0.98698  1.0000
  N   N16       1.0  0.75000  0.97302  0.31593  1.0000
