data_image0
_chemical_formula_structural       Rh4I8
_chemical_formula_sum              "Rh4 I8"
_cell_length_a       3.90584
_cell_length_b       9.9269
_cell_length_c       11.5462
_cell_angle_alpha    90
_cell_angle_beta     90
_cell_angle_gamma    90

_space_group_name_H-M_alt    "P 1"
_space_group_IT_number       1

loop_
  _space_group_symop_operation_xyz
  'x, y, z'

loop_
  _atom_site_type_symbol
  _atom_site_label
  _atom_site_symmetry_multiplicity
  _atom_site_fract_x
  _atom_site_fract_y
  _atom_site_fract_z
  _atom_site_occupancy
  Rh  Rh1       1.0  0.75000  0.85068  0.04542  1.0000
  Rh  Rh2       1.0  0.25000  0.14932  0.95458  1.0000
  Rh  Rh3       1.0  0.75000  0.35068  0.45458  1.0000
  Rh  Rh4       1.0  0.25000  0.64932  0.54542  1.0000
  I   I1        1.0  0.75000  0.51590  0.64596  1.0000
  I   I2        1.0  0.25000  0.48410  0.35404  1.0000
  I   I3        1.0  0.75000  0.01590  0.85404  1.0000
  I   I4        1.0  0.25000  0.98410  0.14596  1.0000
  I   I5        1.0  0.75000  0.31473  0.02350  1.0000
  I   I6        1.0  0.25000  0.68527  0.97650  1.0000
  I   I7        1.0  0.75000  0.81473  0.47650  1.0000
  I   I8        1.0  0.25000  0.18527  0.52350  1.0000
