data_image0
_chemical_formula_structural       Rh2I2
_chemical_formula_sum              "Rh2 I2"
_cell_length_a       4.07295
_cell_length_b       4.07295
_cell_length_c       7.50591
_cell_angle_alpha    90
_cell_angle_beta     90
_cell_angle_gamma    120

_space_group_name_H-M_alt    "P 1"
_space_group_IT_number       1

loop_
  _space_group_symop_operation_xyz
  'x, y, z'

loop_
  _atom_site_type_symbol
  _atom_site_label
  _atom_site_symmetry_multiplicity
  _atom_site_fract_x
  _atom_site_fract_y
  _atom_site_fract_z
  _atom_site_occupancy
  Rh  Rh1       1.0  0.66667  0.33333  0.51456  1.0000
  Rh  Rh2       1.0  0.33333  0.66667  0.01456  1.0000
  I   I1        1.0  0.66667  0.33333  0.86544  1.0000
  I   I2        1.0  0.33333  0.66667  0.36544  1.0000
