data_image0
_chemical_formula_structural       RhI4
_chemical_formula_sum              "Rh1 I4"
_cell_length_a       7.62242
_cell_length_b       7.62242
_cell_length_c       7.62242
_cell_angle_alpha    92.5904
_cell_angle_beta     92.5904
_cell_angle_gamma    155.451

_space_group_name_H-M_alt    "P 1"
_space_group_IT_number       1

loop_
  _space_group_symop_operation_xyz
  'x, y, z'

loop_
  _atom_site_type_symbol
  _atom_site_label
  _atom_site_symmetry_multiplicity
  _atom_site_fract_x
  _atom_site_fract_y
  _atom_site_fract_z
  _atom_site_occupancy
  Rh  Rh1       1.0  0.00000  0.00000  0.00000  1.0000
  I   I1        1.0  0.55523  0.27085  0.82608  1.0000
  I   I2        1.0  0.44477  0.72915  0.17392  1.0000
  I   I3        1.0  0.72915  0.55523  0.28438  1.0000
  I   I4        1.0  0.27085  0.44477  0.71562  1.0000
