data_image0
_chemical_formula_structural       Rh6I20
_chemical_formula_sum              "Rh6 I20"
_cell_length_a       18.8215
_cell_length_b       18.8215
_cell_length_c       3.62705
_cell_angle_alpha    90
_cell_angle_beta     90
_cell_angle_gamma    120

_space_group_name_H-M_alt    "P 1"
_space_group_IT_number       1

loop_
  _space_group_symop_operation_xyz
  'x, y, z'

loop_
  _atom_site_type_symbol
  _atom_site_label
  _atom_site_symmetry_multiplicity
  _atom_site_fract_x
  _atom_site_fract_y
  _atom_site_fract_z
  _atom_site_occupancy
  Rh  Rh1       1.0  0.64021  0.74041  0.25000  1.0000
  Rh  Rh2       1.0  0.25959  0.89981  0.25000  1.0000
  Rh  Rh3       1.0  0.10019  0.35979  0.25000  1.0000
  Rh  Rh4       1.0  0.35979  0.25959  0.75000  1.0000
  Rh  Rh5       1.0  0.74041  0.10019  0.75000  1.0000
  Rh  Rh6       1.0  0.89981  0.64021  0.75000  1.0000
  I   I1        1.0  0.85260  0.10844  0.25000  1.0000
  I   I2        1.0  0.89156  0.74416  0.25000  1.0000
  I   I3        1.0  0.25584  0.14740  0.25000  1.0000
  I   I4        1.0  0.14740  0.89156  0.75000  1.0000
  I   I5        1.0  0.10844  0.25584  0.75000  1.0000
  I   I6        1.0  0.74416  0.85260  0.75000  1.0000
  I   I7        1.0  0.63405  0.99113  0.25000  1.0000
  I   I8        1.0  0.00887  0.64292  0.25000  1.0000
  I   I9        1.0  0.35708  0.36595  0.25000  1.0000
  I   I10       1.0  0.36595  0.00887  0.75000  1.0000
  I   I11       1.0  0.99113  0.35708  0.75000  1.0000
  I   I12       1.0  0.64292  0.63405  0.75000  1.0000
  I   I13       1.0  0.73501  0.20707  0.25000  1.0000
  I   I14       1.0  0.79293  0.52793  0.25000  1.0000
  I   I15       1.0  0.47207  0.26499  0.25000  1.0000
  I   I16       1.0  0.26499  0.79293  0.75000  1.0000
  I   I17       1.0  0.20707  0.47207  0.75000  1.0000
  I   I18       1.0  0.52793  0.73501  0.75000  1.0000
  I   I19       1.0  0.66667  0.33333  0.75000  1.0000
  I   I20       1.0  0.33333  0.66667  0.25000  1.0000
