data_image0
_chemical_formula_structural       Rh2I6
_chemical_formula_sum              "Rh2 I6"
_cell_length_a       5.59702
_cell_length_b       3.91028
_cell_length_c       12.4578
_cell_angle_alpha    90
_cell_angle_beta     90
_cell_angle_gamma    90

_space_group_name_H-M_alt    "P 1"
_space_group_IT_number       1

loop_
  _space_group_symop_operation_xyz
  'x, y, z'

loop_
  _atom_site_type_symbol
  _atom_site_label
  _atom_site_symmetry_multiplicity
  _atom_site_fract_x
  _atom_site_fract_y
  _atom_site_fract_z
  _atom_site_occupancy
  Rh  Rh1       1.0  0.50000  0.71718  0.50000  1.0000
  Rh  Rh2       1.0  0.00000  0.28282  0.00000  1.0000
  I   I1        1.0  0.50000  0.21844  0.64622  1.0000
  I   I2        1.0  0.50000  0.21844  0.35378  1.0000
  I   I3        1.0  0.00000  0.78156  0.85378  1.0000
  I   I4        1.0  0.00000  0.78156  0.14622  1.0000
  I   I5        1.0  0.00000  0.73218  0.50000  1.0000
  I   I6        1.0  0.50000  0.26782  0.00000  1.0000
