data_image0
_chemical_formula_structural       Rh2I4
_chemical_formula_sum              "Rh2 I4"
_cell_length_a       3.82324
_cell_length_b       3.82324
_cell_length_c       26.4603
_cell_angle_alpha    90
_cell_angle_beta     90
_cell_angle_gamma    120

_space_group_name_H-M_alt    "P 1"
_space_group_IT_number       1

loop_
  _space_group_symop_operation_xyz
  'x, y, z'

loop_
  _atom_site_type_symbol
  _atom_site_label
  _atom_site_symmetry_multiplicity
  _atom_site_fract_x
  _atom_site_fract_y
  _atom_site_fract_z
  _atom_site_occupancy
  Rh  Rh1       1.0  0.66667  0.33333  0.15157  1.0000
  Rh  Rh2       1.0  0.33333  0.66667  0.84843  1.0000
  I   I1        1.0  0.33333  0.66667  0.21601  1.0000
  I   I2        1.0  0.66667  0.33333  0.91236  1.0000
  I   I3        1.0  0.33333  0.66667  0.08764  1.0000
  I   I4        1.0  0.66667  0.33333  0.78399  1.0000
