data_image0
_chemical_formula_structural       N4Rh2
_chemical_formula_sum              "N4 Rh2"
_cell_length_a       4.32826
_cell_length_b       4.32826
_cell_length_c       4.32826
_cell_angle_alpha    116.579
_cell_angle_beta     116.579
_cell_angle_gamma    96.0349

_space_group_name_H-M_alt    "P 1"
_space_group_IT_number       1

loop_
  _space_group_symop_operation_xyz
  'x, y, z'

loop_
  _atom_site_type_symbol
  _atom_site_label
  _atom_site_symmetry_multiplicity
  _atom_site_fract_x
  _atom_site_fract_y
  _atom_site_fract_z
  _atom_site_occupancy
  N   N1        1.0  0.90599  0.40599  0.31198  1.0000
  N   N2        1.0  0.40599  0.09401  0.50000  1.0000
  N   N3        1.0  0.09401  0.59401  0.68802  1.0000
  N   N4        1.0  0.59401  0.90599  0.50000  1.0000
  Rh  Rh1       1.0  0.25000  0.25000  0.00000  1.0000
  Rh  Rh2       1.0  0.75000  0.75000  0.00000  1.0000
