data_image0
_chemical_formula_structural       Rh2N6
_chemical_formula_sum              "Rh2 N6"
_cell_length_a       6.13588
_cell_length_b       2.92698
_cell_length_c       5.25563
_cell_angle_alpha    90
_cell_angle_beta     90
_cell_angle_gamma    90

_space_group_name_H-M_alt    "P 1"
_space_group_IT_number       1

loop_
  _space_group_symop_operation_xyz
  'x, y, z'

loop_
  _atom_site_type_symbol
  _atom_site_label
  _atom_site_symmetry_multiplicity
  _atom_site_fract_x
  _atom_site_fract_y
  _atom_site_fract_z
  _atom_site_occupancy
  Rh  Rh1       1.0  0.50000  0.26393  0.50000  1.0000
  Rh  Rh2       1.0  0.00000  0.73607  0.00000  1.0000
  N   N1        1.0  0.00000  0.23665  0.50000  1.0000
  N   N2        1.0  0.50000  0.76335  0.00000  1.0000
  N   N3        1.0  0.00000  0.23625  0.72951  1.0000
  N   N4        1.0  0.50000  0.76375  0.77049  1.0000
  N   N5        1.0  0.00000  0.23625  0.27049  1.0000
  N   N6        1.0  0.50000  0.76375  0.22951  1.0000
