data_image0
_chemical_formula_structural       Rh4I8
_chemical_formula_sum              "Rh4 I8"
_cell_length_a       17.329
_cell_length_b       17.329
_cell_length_c       5.66593
_cell_angle_alpha    90
_cell_angle_beta     90
_cell_angle_gamma    166.675

_space_group_name_H-M_alt    "P 1"
_space_group_IT_number       1

loop_
  _space_group_symop_operation_xyz
  'x, y, z'

loop_
  _atom_site_type_symbol
  _atom_site_label
  _atom_site_symmetry_multiplicity
  _atom_site_fract_x
  _atom_site_fract_y
  _atom_site_fract_z
  _atom_site_occupancy
  Rh  Rh1       1.0  0.21576  0.78424  0.46803  1.0000
  Rh  Rh2       1.0  0.78424  0.21576  0.96803  1.0000
  Rh  Rh3       1.0  0.59735  0.40265  0.65842  1.0000
  Rh  Rh4       1.0  0.40265  0.59735  0.15842  1.0000
  I   I1        1.0  0.71753  0.28247  0.18416  1.0000
  I   I2        1.0  0.28247  0.71753  0.68416  1.0000
  I   I3        1.0  0.40778  0.59222  0.66171  1.0000
  I   I4        1.0  0.59222  0.40778  0.16171  1.0000
  I   I5        1.0  0.14875  0.85125  0.68419  1.0000
  I   I6        1.0  0.85125  0.14875  0.18419  1.0000
  I   I7        1.0  0.95420  0.04580  0.15778  1.0000
  I   I8        1.0  0.04580  0.95420  0.65778  1.0000
