data_image0
_chemical_formula_structural       Rh2N5
_chemical_formula_sum              "Rh2 N5"
_cell_length_a       3.4104
_cell_length_b       3.4104
_cell_length_c       9.04249
_cell_angle_alpha    84.0594
_cell_angle_beta     84.0594
_cell_angle_gamma    51.6104

_space_group_name_H-M_alt    "P 1"
_space_group_IT_number       1

loop_
  _space_group_symop_operation_xyz
  'x, y, z'

loop_
  _atom_site_type_symbol
  _atom_site_label
  _atom_site_symmetry_multiplicity
  _atom_site_fract_x
  _atom_site_fract_y
  _atom_site_fract_z
  _atom_site_occupancy
  Rh  Rh1       1.0  0.46002  0.46002  0.71217  1.0000
  Rh  Rh2       1.0  0.53998  0.53998  0.28783  1.0000
  N   N1        1.0  0.98543  0.98543  0.56828  1.0000
  N   N2        1.0  0.06433  0.06433  0.11953  1.0000
  N   N3        1.0  0.93567  0.93567  0.88047  1.0000
  N   N4        1.0  0.01457  0.01457  0.43172  1.0000
  N   N5        1.0  0.00000  0.00000  0.00000  1.0000
