data_image0
_chemical_formula_structural       Rh3N3
_chemical_formula_sum              "Rh3 N3"
_cell_length_a       5.42413
_cell_length_b       5.42413
_cell_length_c       5.42413
_cell_angle_alpha    117.111
_cell_angle_beta     117.111
_cell_angle_gamma    117.111

_space_group_name_H-M_alt    "P 1"
_space_group_IT_number       1

loop_
  _space_group_symop_operation_xyz
  'x, y, z'

loop_
  _atom_site_type_symbol
  _atom_site_label
  _atom_site_symmetry_multiplicity
  _atom_site_fract_x
  _atom_site_fract_y
  _atom_site_fract_z
  _atom_site_occupancy
  Rh  Rh1       1.0  0.24892  0.96247  0.96247  1.0000
  Rh  Rh2       1.0  0.96247  0.96247  0.24892  1.0000
  Rh  Rh3       1.0  0.96247  0.24892  0.96247  1.0000
  N   N1        1.0  0.42365  0.75725  0.75725  1.0000
  N   N2        1.0  0.75725  0.75725  0.42365  1.0000
  N   N3        1.0  0.75725  0.42365  0.75725  1.0000
