data_image0
_chemical_formula_structural       Rh4I12
_chemical_formula_sum              "Rh4 I12"
_cell_length_a       8.18885
_cell_length_b       8.18885
_cell_length_c       10.9776
_cell_angle_alpha    90
_cell_angle_beta     90
_cell_angle_gamma    101.552

_space_group_name_H-M_alt    "P 1"
_space_group_IT_number       1

loop_
  _space_group_symop_operation_xyz
  'x, y, z'

loop_
  _atom_site_type_symbol
  _atom_site_label
  _atom_site_symmetry_multiplicity
  _atom_site_fract_x
  _atom_site_fract_y
  _atom_site_fract_z
  _atom_site_occupancy
  Rh  Rh1       1.0  0.66196  0.33804  0.00000  1.0000
  Rh  Rh2       1.0  0.33804  0.66196  0.00000  1.0000
  Rh  Rh3       1.0  0.16196  0.83804  0.50000  1.0000
  Rh  Rh4       1.0  0.83804  0.16196  0.50000  1.0000
  I   I1        1.0  0.65686  0.65686  0.01595  1.0000
  I   I2        1.0  0.15686  0.15686  0.48405  1.0000
  I   I3        1.0  0.84314  0.84314  0.51595  1.0000
  I   I4        1.0  0.36692  0.63308  0.50000  1.0000
  I   I5        1.0  0.74910  0.24910  0.75000  1.0000
  I   I6        1.0  0.86692  0.13308  0.00000  1.0000
  I   I7        1.0  0.25090  0.75090  0.25000  1.0000
  I   I8        1.0  0.34314  0.34314  0.98405  1.0000
  I   I9        1.0  0.63308  0.36692  0.50000  1.0000
  I   I10       1.0  0.13308  0.86692  0.00000  1.0000
  I   I11       1.0  0.75090  0.25090  0.25000  1.0000
  I   I12       1.0  0.24910  0.74910  0.75000  1.0000
