data_image0
_chemical_formula_structural       RhI4
_chemical_formula_sum              "Rh1 I4"
_cell_length_a       8.42946
_cell_length_b       8.42946
_cell_length_c       8.42946
_cell_angle_alpha    92.1096
_cell_angle_beta     92.1096
_cell_angle_gamma    157.877

_space_group_name_H-M_alt    "P 1"
_space_group_IT_number       1

loop_
  _space_group_symop_operation_xyz
  'x, y, z'

loop_
  _atom_site_type_symbol
  _atom_site_label
  _atom_site_symmetry_multiplicity
  _atom_site_fract_x
  _atom_site_fract_y
  _atom_site_fract_z
  _atom_site_occupancy
  Rh  Rh1       1.0  0.00000  0.00000  0.00000  1.0000
  I   I1        1.0  0.57550  0.69852  0.27402  1.0000
  I   I2        1.0  0.42450  0.30148  0.72598  1.0000
  I   I3        1.0  0.30148  0.57550  0.87698  1.0000
  I   I4        1.0  0.69852  0.42450  0.12302  1.0000
