data_image0
_chemical_formula_structural       RhI2
_chemical_formula_sum              "Rh1 I2"
_cell_length_a       4.01803
_cell_length_b       4.01803
_cell_length_c       6.52612
_cell_angle_alpha    88.2152
_cell_angle_beta     88.2152
_cell_angle_gamma    59.9531

_space_group_name_H-M_alt    "P 1"
_space_group_IT_number       1

loop_
  _space_group_symop_operation_xyz
  'x, y, z'

loop_
  _atom_site_type_symbol
  _atom_site_label
  _atom_site_symmetry_multiplicity
  _atom_site_fract_x
  _atom_site_fract_y
  _atom_site_fract_z
  _atom_site_occupancy
  Rh  Rh1       1.0  0.66689  0.33311  0.50000  1.0000
  I   I1        1.0  0.32528  0.99216  0.72562  1.0000
  I   I2        1.0  0.00784  0.67472  0.27438  1.0000
