data_image0
_chemical_formula_structural       Rh6I10
_chemical_formula_sum              "Rh6 I10"
_cell_length_a       3.96909
_cell_length_b       9.68921
_cell_length_c       13.1684
_cell_angle_alpha    90
_cell_angle_beta     90
_cell_angle_gamma    90

_space_group_name_H-M_alt    "P 1"
_space_group_IT_number       1

loop_
  _space_group_symop_operation_xyz
  'x, y, z'

loop_
  _atom_site_type_symbol
  _atom_site_label
  _atom_site_symmetry_multiplicity
  _atom_site_fract_x
  _atom_site_fract_y
  _atom_site_fract_z
  _atom_site_occupancy
  Rh  Rh1       1.0  0.50000  0.31740  0.92549  1.0000
  Rh  Rh2       1.0  0.50000  0.81740  0.57451  1.0000
  Rh  Rh3       1.0  0.00000  0.50000  0.50000  1.0000
  Rh  Rh4       1.0  0.00000  0.00000  0.00000  1.0000
  Rh  Rh5       1.0  0.50000  0.68260  0.07451  1.0000
  Rh  Rh6       1.0  0.50000  0.18260  0.42549  1.0000
  I   I1        1.0  0.50000  0.65103  0.41663  1.0000
  I   I2        1.0  0.50000  0.34897  0.58337  1.0000
  I   I3        1.0  0.00000  0.19312  0.83070  1.0000
  I   I4        1.0  0.50000  0.84897  0.91663  1.0000
  I   I5        1.0  0.00000  0.30688  0.33070  1.0000
  I   I6        1.0  0.00000  0.80688  0.16930  1.0000
  I   I7        1.0  0.00000  0.69312  0.66930  1.0000
  I   I8        1.0  0.00000  0.50000  0.00000  1.0000
  I   I9        1.0  0.00000  0.00000  0.50000  1.0000
  I   I10       1.0  0.50000  0.15103  0.08337  1.0000
