data_image0
_chemical_formula_structural       Se6Rh2
_chemical_formula_sum              "Se6 Rh2"
_cell_length_a       3.47686
_cell_length_b       6.54791
_cell_length_c       7.96886
_cell_angle_alpha    90
_cell_angle_beta     90
_cell_angle_gamma    90

_space_group_name_H-M_alt    "P 1"
_space_group_IT_number       1

loop_
  _space_group_symop_operation_xyz
  'x, y, z'

loop_
  _atom_site_type_symbol
  _atom_site_label
  _atom_site_symmetry_multiplicity
  _atom_site_fract_x
  _atom_site_fract_y
  _atom_site_fract_z
  _atom_site_occupancy
  Se  Se1       1.0  0.00000  0.30630  0.29818  1.0000
  Se  Se2       1.0  0.00000  0.30630  0.70182  1.0000
  Se  Se3       1.0  0.50000  0.69370  0.20182  1.0000
  Se  Se4       1.0  0.50000  0.69370  0.79818  1.0000
  Se  Se5       1.0  0.00000  0.91744  0.50000  1.0000
  Se  Se6       1.0  0.50000  0.08256  0.00000  1.0000
  Rh  Rh1       1.0  0.00000  0.81195  0.00000  1.0000
  Rh  Rh2       1.0  0.50000  0.18805  0.50000  1.0000
