data_image0
_chemical_formula_structural       Rh2Tl5
_chemical_formula_sum              "Rh2 Tl5"
_cell_length_a       7.58121
_cell_length_b       7.58121
_cell_length_c       7.62824
_cell_angle_alpha    89.9189
_cell_angle_beta     89.9189
_cell_angle_gamma    23.9267

_space_group_name_H-M_alt    "P 1"
_space_group_IT_number       1

loop_
  _space_group_symop_operation_xyz
  'x, y, z'

loop_
  _atom_site_type_symbol
  _atom_site_label
  _atom_site_symmetry_multiplicity
  _atom_site_fract_x
  _atom_site_fract_y
  _atom_site_fract_z
  _atom_site_occupancy
  Rh  Rh1       1.0  0.44560  0.44560  0.71457  1.0000
  Rh  Rh2       1.0  0.55440  0.55440  0.28543  1.0000
  Tl  Tl1       1.0  0.10333  0.10333  0.59592  1.0000
  Tl  Tl2       1.0  0.21454  0.21454  0.19661  1.0000
  Tl  Tl3       1.0  0.78546  0.78546  0.80339  1.0000
  Tl  Tl4       1.0  0.89667  0.89667  0.40408  1.0000
  Tl  Tl5       1.0  0.00000  0.00000  0.00000  1.0000
