data_image0
_chemical_formula_structural       Rh6Se8
_chemical_formula_sum              "Rh6 Se8"
_cell_length_a       7.35711
_cell_length_b       7.35711
_cell_length_c       7.35711
_cell_angle_alpha    60
_cell_angle_beta     60
_cell_angle_gamma    60

_space_group_name_H-M_alt    "P 1"
_space_group_IT_number       1

loop_
  _space_group_symop_operation_xyz
  'x, y, z'

loop_
  _atom_site_type_symbol
  _atom_site_label
  _atom_site_symmetry_multiplicity
  _atom_site_fract_x
  _atom_site_fract_y
  _atom_site_fract_z
  _atom_site_occupancy
  Rh  Rh1       1.0  0.50000  0.50000  0.50000  1.0000
  Rh  Rh2       1.0  0.12500  0.12500  0.62500  1.0000
  Rh  Rh3       1.0  0.12500  0.12500  0.12500  1.0000
  Rh  Rh4       1.0  0.12500  0.62500  0.12500  1.0000
  Rh  Rh5       1.0  0.75000  0.75000  0.75000  1.0000
  Rh  Rh6       1.0  0.62500  0.12500  0.12500  1.0000
  Se  Se1       1.0  0.88387  0.88387  0.88387  1.0000
  Se  Se2       1.0  0.88387  0.88387  0.34838  1.0000
  Se  Se3       1.0  0.36613  0.36613  0.36613  1.0000
  Se  Se4       1.0  0.36613  0.36613  0.90162  1.0000
  Se  Se5       1.0  0.88387  0.34838  0.88387  1.0000
  Se  Se6       1.0  0.36613  0.90162  0.36613  1.0000
  Se  Se7       1.0  0.90162  0.36613  0.36613  1.0000
  Se  Se8       1.0  0.34838  0.88387  0.88387  1.0000
