data_image0
_chemical_formula_structural       Rh2Se3
_chemical_formula_sum              "Rh2 Se3"
_cell_length_a       9.0299
_cell_length_b       9.0299
_cell_length_c       9.0299
_cell_angle_alpha    22.8994
_cell_angle_beta     22.8994
_cell_angle_gamma    22.8994

_space_group_name_H-M_alt    "P 1"
_space_group_IT_number       1

loop_
  _space_group_symop_operation_xyz
  'x, y, z'

loop_
  _atom_site_type_symbol
  _atom_site_label
  _atom_site_symmetry_multiplicity
  _atom_site_fract_x
  _atom_site_fract_y
  _atom_site_fract_z
  _atom_site_occupancy
  Rh  Rh1       1.0  0.60030  0.60030  0.60030  1.0000
  Rh  Rh2       1.0  0.39970  0.39970  0.39970  1.0000
  Se  Se1       1.0  0.00000  0.00000  0.00000  1.0000
  Se  Se2       1.0  0.21858  0.21858  0.21858  1.0000
  Se  Se3       1.0  0.78142  0.78142  0.78142  1.0000
