data_image0
_chemical_formula_structural       Rh10N6
_chemical_formula_sum              "Rh10 N6"
_cell_length_a       6.44605
_cell_length_b       6.44605
_cell_length_c       6.44605
_cell_angle_alpha    101.006
_cell_angle_beta     101.006
_cell_angle_gamma    128.183

_space_group_name_H-M_alt    "P 1"
_space_group_IT_number       1

loop_
  _space_group_symop_operation_xyz
  'x, y, z'

loop_
  _atom_site_type_symbol
  _atom_site_label
  _atom_site_symmetry_multiplicity
  _atom_site_fract_x
  _atom_site_fract_y
  _atom_site_fract_z
  _atom_site_occupancy
  Rh  Rh1       1.0  0.50063  0.27198  0.77261  1.0000
  Rh  Rh2       1.0  0.49937  0.72802  0.22739  1.0000
  Rh  Rh3       1.0  0.72802  0.50063  0.22864  1.0000
  Rh  Rh4       1.0  0.27198  0.49937  0.77136  1.0000
  Rh  Rh5       1.0  0.99937  0.77198  0.77136  1.0000
  Rh  Rh6       1.0  0.22802  0.99937  0.22739  1.0000
  Rh  Rh7       1.0  0.25000  0.75000  0.50000  1.0000
  Rh  Rh8       1.0  0.75000  0.25000  0.50000  1.0000
  Rh  Rh9       1.0  0.00063  0.22802  0.22864  1.0000
  Rh  Rh10      1.0  0.77198  0.00063  0.77261  1.0000
  N   N1        1.0  0.75402  0.25402  0.00803  1.0000
  N   N2        1.0  0.74598  0.75402  0.50000  1.0000
  N   N3        1.0  0.25402  0.24598  0.50000  1.0000
  N   N4        1.0  0.24598  0.74598  0.99197  1.0000
  N   N5        1.0  0.75000  0.75000  0.00000  1.0000
  N   N6        1.0  0.25000  0.25000  0.00000  1.0000
