data_image0
_chemical_formula_structural       RhN4
_chemical_formula_sum              "Rh1 N4"
_cell_length_a       7.34485
_cell_length_b       7.34485
_cell_length_c       7.34485
_cell_angle_alpha    21.873
_cell_angle_beta     21.873
_cell_angle_gamma    21.873

_space_group_name_H-M_alt    "P 1"
_space_group_IT_number       1

loop_
  _space_group_symop_operation_xyz
  'x, y, z'

loop_
  _atom_site_type_symbol
  _atom_site_label
  _atom_site_symmetry_multiplicity
  _atom_site_fract_x
  _atom_site_fract_y
  _atom_site_fract_z
  _atom_site_occupancy
  Rh  Rh1       1.0  0.00000  0.00000  0.00000  1.0000
  N   N1        1.0  0.61012  0.61012  0.61012  1.0000
  N   N2        1.0  0.18296  0.18296  0.18296  1.0000
  N   N3        1.0  0.81704  0.81704  0.81704  1.0000
  N   N4        1.0  0.38988  0.38988  0.38988  1.0000
