data_image0
_chemical_formula_structural       Rh3Se4
_chemical_formula_sum              "Rh3 Se4"
_cell_length_a       6.55812
_cell_length_b       6.55812
_cell_length_c       6.4273
_cell_angle_alpha    63.5207
_cell_angle_beta     63.5207
_cell_angle_gamma    32.8789

_space_group_name_H-M_alt    "P 1"
_space_group_IT_number       1

loop_
  _space_group_symop_operation_xyz
  'x, y, z'

loop_
  _atom_site_type_symbol
  _atom_site_label
  _atom_site_symmetry_multiplicity
  _atom_site_fract_x
  _atom_site_fract_y
  _atom_site_fract_z
  _atom_site_occupancy
  Rh  Rh1       1.0  0.00000  0.00000  0.00000  1.0000
  Rh  Rh2       1.0  0.26734  0.26734  0.71019  1.0000
  Rh  Rh3       1.0  0.73266  0.73266  0.28981  1.0000
  Se  Se1       1.0  0.11952  0.11952  0.55007  1.0000
  Se  Se2       1.0  0.88048  0.88048  0.44993  1.0000
  Se  Se3       1.0  0.63496  0.63496  0.01928  1.0000
  Se  Se4       1.0  0.36504  0.36504  0.98072  1.0000
