data_image0
_chemical_formula_structural       Rh8Se8
_chemical_formula_sum              "Rh8 Se8"
_cell_length_a       6.59621
_cell_length_b       6.59621
_cell_length_c       7.13684
_cell_angle_alpha    90
_cell_angle_beta     90
_cell_angle_gamma    90

_space_group_name_H-M_alt    "P 1"
_space_group_IT_number       1

loop_
  _space_group_symop_operation_xyz
  'x, y, z'

loop_
  _atom_site_type_symbol
  _atom_site_label
  _atom_site_symmetry_multiplicity
  _atom_site_fract_x
  _atom_site_fract_y
  _atom_site_fract_z
  _atom_site_occupancy
  Rh  Rh1       1.0  0.53757  0.69647  0.00000  1.0000
  Rh  Rh2       1.0  0.30353  0.53757  0.50000  1.0000
  Rh  Rh3       1.0  0.69647  0.46243  0.50000  1.0000
  Rh  Rh4       1.0  0.46243  0.30353  0.00000  1.0000
  Rh  Rh5       1.0  0.50000  0.00000  0.50000  1.0000
  Rh  Rh6       1.0  0.00000  0.50000  0.00000  1.0000
  Rh  Rh7       1.0  0.00000  0.00000  0.75000  1.0000
  Rh  Rh8       1.0  0.00000  0.00000  0.25000  1.0000
  Se  Se1       1.0  0.19373  0.31754  0.75952  1.0000
  Se  Se2       1.0  0.68246  0.19373  0.25952  1.0000
  Se  Se3       1.0  0.31754  0.80627  0.25952  1.0000
  Se  Se4       1.0  0.80627  0.68246  0.75952  1.0000
  Se  Se5       1.0  0.80627  0.68246  0.24048  1.0000
  Se  Se6       1.0  0.31754  0.80627  0.74048  1.0000
  Se  Se7       1.0  0.68246  0.19373  0.74048  1.0000
  Se  Se8       1.0  0.19373  0.31754  0.24048  1.0000
