data_image0
_chemical_formula_structural       Rh4Se18
_chemical_formula_sum              "Rh4 Se18"
_cell_length_a       8.4433
_cell_length_b       8.4433
_cell_length_c       8.6074
_cell_angle_alpha    83.4205
_cell_angle_beta     83.4205
_cell_angle_gamma    95.5441

_space_group_name_H-M_alt    "P 1"
_space_group_IT_number       1

loop_
  _space_group_symop_operation_xyz
  'x, y, z'

loop_
  _atom_site_type_symbol
  _atom_site_label
  _atom_site_symmetry_multiplicity
  _atom_site_fract_x
  _atom_site_fract_y
  _atom_site_fract_z
  _atom_site_occupancy
  Rh  Rh1       1.0  0.40402  0.78804  0.08040  1.0000
  Rh  Rh2       1.0  0.21196  0.59598  0.41960  1.0000
  Rh  Rh3       1.0  0.59598  0.21196  0.91960  1.0000
  Rh  Rh4       1.0  0.78804  0.40402  0.58040  1.0000
  Se  Se1       1.0  0.39877  0.75019  0.57142  1.0000
  Se  Se2       1.0  0.24981  0.60123  0.92858  1.0000
  Se  Se3       1.0  0.68465  0.10453  0.65233  1.0000
  Se  Se4       1.0  0.89547  0.31535  0.84767  1.0000
  Se  Se5       1.0  0.31535  0.89547  0.34767  1.0000
  Se  Se6       1.0  0.10453  0.68465  0.15233  1.0000
  Se  Se7       1.0  0.24196  0.35947  0.61201  1.0000
  Se  Se8       1.0  0.64053  0.75804  0.88799  1.0000
  Se  Se9       1.0  0.75804  0.64053  0.38799  1.0000
  Se  Se10      1.0  0.35947  0.24196  0.11201  1.0000
  Se  Se11      1.0  0.04369  0.33022  0.43352  1.0000
  Se  Se12      1.0  0.66978  0.95631  0.06648  1.0000
  Se  Se13      1.0  0.95631  0.66978  0.56648  1.0000
  Se  Se14      1.0  0.33022  0.04369  0.93352  1.0000
  Se  Se15      1.0  0.75019  0.39877  0.07142  1.0000
  Se  Se16      1.0  0.60123  0.24981  0.42858  1.0000
  Se  Se17      1.0  0.46118  0.53882  0.25000  1.0000
  Se  Se18      1.0  0.53882  0.46118  0.75000  1.0000
