data_image0
_chemical_formula_structural       Rh6S6
_chemical_formula_sum              "Rh6 S6"
_cell_length_a       3.73465
_cell_length_b       3.73465
_cell_length_c       16.9795
_cell_angle_alpha    90
_cell_angle_beta     90
_cell_angle_gamma    115.897

_space_group_name_H-M_alt    "P 1"
_space_group_IT_number       1

loop_
  _space_group_symop_operation_xyz
  'x, y, z'

loop_
  _atom_site_type_symbol
  _atom_site_label
  _atom_site_symmetry_multiplicity
  _atom_site_fract_x
  _atom_site_fract_y
  _atom_site_fract_z
  _atom_site_occupancy
  Rh  Rh1       1.0  0.33945  0.66055  0.11685  1.0000
  Rh  Rh2       1.0  0.66055  0.33945  0.88315  1.0000
  Rh  Rh3       1.0  0.66055  0.33945  0.61685  1.0000
  Rh  Rh4       1.0  0.33945  0.66055  0.38315  1.0000
  Rh  Rh5       1.0  0.36488  0.63512  0.75000  1.0000
  Rh  Rh6       1.0  0.63512  0.36488  0.25000  1.0000
  S   S1        1.0  0.71806  0.28194  0.75000  1.0000
  S   S2        1.0  0.28194  0.71806  0.25000  1.0000
  S   S3        1.0  0.00156  0.99844  0.56781  1.0000
  S   S4        1.0  0.99844  0.00156  0.06781  1.0000
  S   S5        1.0  0.00156  0.99844  0.93219  1.0000
  S   S6        1.0  0.99844  0.00156  0.43219  1.0000
