data_image0
_chemical_formula_structural       RhS5
_chemical_formula_sum              "Rh1 S5"
_cell_length_a       9.17316
_cell_length_b       9.17316
_cell_length_c       9.17316
_cell_angle_alpha    26.2134
_cell_angle_beta     26.2134
_cell_angle_gamma    26.2134

_space_group_name_H-M_alt    "P 1"
_space_group_IT_number       1

loop_
  _space_group_symop_operation_xyz
  'x, y, z'

loop_
  _atom_site_type_symbol
  _atom_site_label
  _atom_site_symmetry_multiplicity
  _atom_site_fract_x
  _atom_site_fract_y
  _atom_site_fract_z
  _atom_site_occupancy
  Rh  Rh1       1.0  0.00000  0.00000  0.00000  1.0000
  S   S1        1.0  0.69292  0.69292  0.69292  1.0000
  S   S2        1.0  0.14140  0.50000  0.85860  1.0000
  S   S3        1.0  0.50000  0.85860  0.14140  1.0000
  S   S4        1.0  0.85860  0.14140  0.50000  1.0000
  S   S5        1.0  0.30708  0.30708  0.30708  1.0000
