data_image0
_chemical_formula_structural       Rh2Tl6
_chemical_formula_sum              "Rh2 Tl6"
_cell_length_a       3.32256
_cell_length_b       8.06543
_cell_length_c       7.58545
_cell_angle_alpha    90
_cell_angle_beta     90
_cell_angle_gamma    90

_space_group_name_H-M_alt    "P 1"
_space_group_IT_number       1

loop_
  _space_group_symop_operation_xyz
  'x, y, z'

loop_
  _atom_site_type_symbol
  _atom_site_label
  _atom_site_symmetry_multiplicity
  _atom_site_fract_x
  _atom_site_fract_y
  _atom_site_fract_z
  _atom_site_occupancy
  Rh  Rh1       1.0  0.50000  0.18148  0.50000  1.0000
  Rh  Rh2       1.0  0.00000  0.81852  0.00000  1.0000
  Tl  Tl1       1.0  0.00000  0.48123  0.50000  1.0000
  Tl  Tl2       1.0  0.50000  0.51877  0.00000  1.0000
  Tl  Tl3       1.0  0.00000  0.17045  0.80150  1.0000
  Tl  Tl4       1.0  0.50000  0.82955  0.69850  1.0000
  Tl  Tl5       1.0  0.00000  0.17045  0.19850  1.0000
  Tl  Tl6       1.0  0.50000  0.82955  0.30150  1.0000
