data_image0
_chemical_formula_structural       Rh2S6
_chemical_formula_sum              "Rh2 S6"
_cell_length_a       3.63461
_cell_length_b       6.33813
_cell_length_c       7.0226
_cell_angle_alpha    90
_cell_angle_beta     90
_cell_angle_gamma    90

_space_group_name_H-M_alt    "P 1"
_space_group_IT_number       1

loop_
  _space_group_symop_operation_xyz
  'x, y, z'

loop_
  _atom_site_type_symbol
  _atom_site_label
  _atom_site_symmetry_multiplicity
  _atom_site_fract_x
  _atom_site_fract_y
  _atom_site_fract_z
  _atom_site_occupancy
  Rh  Rh1       1.0  0.50000  0.21851  0.50000  1.0000
  Rh  Rh2       1.0  0.00000  0.78149  0.00000  1.0000
  S   S1        1.0  0.00000  0.45670  0.50000  1.0000
  S   S2        1.0  0.50000  0.54330  0.00000  1.0000
  S   S3        1.0  0.00000  0.21205  0.72712  1.0000
  S   S4        1.0  0.50000  0.78795  0.77288  1.0000
  S   S5        1.0  0.00000  0.21205  0.27288  1.0000
  S   S6        1.0  0.50000  0.78795  0.22712  1.0000
