data_image0
_chemical_formula_structural       Tl6Rh2
_chemical_formula_sum              "Tl6 Rh2"
_cell_length_a       3.32801
_cell_length_b       8.05543
_cell_length_c       7.57456
_cell_angle_alpha    90
_cell_angle_beta     90
_cell_angle_gamma    90

_space_group_name_H-M_alt    "P 1"
_space_group_IT_number       1

loop_
  _space_group_symop_operation_xyz
  'x, y, z'

loop_
  _atom_site_type_symbol
  _atom_site_label
  _atom_site_symmetry_multiplicity
  _atom_site_fract_x
  _atom_site_fract_y
  _atom_site_fract_z
  _atom_site_occupancy
  Tl  Tl1       1.0  0.00000  0.33002  0.19867  1.0000
  Tl  Tl2       1.0  0.00000  0.33002  0.80133  1.0000
  Tl  Tl3       1.0  0.50000  0.66998  0.30133  1.0000
  Tl  Tl4       1.0  0.50000  0.66998  0.69867  1.0000
  Tl  Tl5       1.0  0.00000  0.01752  0.50000  1.0000
  Tl  Tl6       1.0  0.50000  0.98248  0.00000  1.0000
  Rh  Rh1       1.0  0.00000  0.68467  0.00000  1.0000
  Rh  Rh2       1.0  0.50000  0.31533  0.50000  1.0000
