data_image0
_chemical_formula_structural       Rh3Se6
_chemical_formula_sum              "Rh3 Se6"
_cell_length_a       4.92123
_cell_length_b       4.92123
_cell_length_c       7.81247
_cell_angle_alpha    90
_cell_angle_beta     90
_cell_angle_gamma    120

_space_group_name_H-M_alt    "P 1"
_space_group_IT_number       1

loop_
  _space_group_symop_operation_xyz
  'x, y, z'

loop_
  _atom_site_type_symbol
  _atom_site_label
  _atom_site_symmetry_multiplicity
  _atom_site_fract_x
  _atom_site_fract_y
  _atom_site_fract_z
  _atom_site_occupancy
  Rh  Rh1       1.0  0.00000  0.50000  0.16667  1.0000
  Rh  Rh2       1.0  0.50000  0.50000  0.83333  1.0000
  Rh  Rh3       1.0  0.50000  0.00000  0.50000  1.0000
  Se  Se1       1.0  0.81420  0.62840  0.50000  1.0000
  Se  Se2       1.0  0.18580  0.81420  0.83333  1.0000
  Se  Se3       1.0  0.62840  0.81420  0.16667  1.0000
  Se  Se4       1.0  0.18580  0.37160  0.50000  1.0000
  Se  Se5       1.0  0.81420  0.18580  0.83333  1.0000
  Se  Se6       1.0  0.37160  0.18580  0.16667  1.0000
