data_image0
_chemical_formula_structural       Rh8S12
_chemical_formula_sum              "Rh8 S12"
_cell_length_a       3.39157
_cell_length_b       8.96249
_cell_length_c       13.3404
_cell_angle_alpha    90
_cell_angle_beta     90
_cell_angle_gamma    90

_space_group_name_H-M_alt    "P 1"
_space_group_IT_number       1

loop_
  _space_group_symop_operation_xyz
  'x, y, z'

loop_
  _atom_site_type_symbol
  _atom_site_label
  _atom_site_symmetry_multiplicity
  _atom_site_fract_x
  _atom_site_fract_y
  _atom_site_fract_z
  _atom_site_occupancy
  Rh  Rh1       1.0  0.25000  0.98937  0.88378  1.0000
  Rh  Rh2       1.0  0.75000  0.01063  0.11622  1.0000
  Rh  Rh3       1.0  0.75000  0.48937  0.61622  1.0000
  Rh  Rh4       1.0  0.25000  0.51063  0.38378  1.0000
  Rh  Rh5       1.0  0.25000  0.16470  0.53013  1.0000
  Rh  Rh6       1.0  0.75000  0.83530  0.46987  1.0000
  Rh  Rh7       1.0  0.75000  0.66470  0.96987  1.0000
  Rh  Rh8       1.0  0.25000  0.33530  0.03013  1.0000
  S   S1        1.0  0.25000  0.33684  0.67275  1.0000
  S   S2        1.0  0.75000  0.66316  0.32725  1.0000
  S   S3        1.0  0.75000  0.83684  0.82725  1.0000
  S   S4        1.0  0.25000  0.16316  0.17275  1.0000
  S   S5        1.0  0.25000  0.98168  0.40318  1.0000
  S   S6        1.0  0.75000  0.01832  0.59682  1.0000
  S   S7        1.0  0.75000  0.48168  0.09682  1.0000
  S   S8        1.0  0.25000  0.51832  0.90318  1.0000
  S   S9        1.0  0.25000  0.85117  0.03050  1.0000
  S   S10       1.0  0.75000  0.14883  0.96950  1.0000
  S   S11       1.0  0.75000  0.35117  0.46950  1.0000
  S   S12       1.0  0.25000  0.64883  0.53050  1.0000
