data_image0
_chemical_formula_structural       Rh3N4
_chemical_formula_sum              "Rh3 N4"
_cell_length_a       5.72247
_cell_length_b       5.72247
_cell_length_c       5.08117
_cell_angle_alpha    65.8742
_cell_angle_beta     65.8742
_cell_angle_gamma    30.1281

_space_group_name_H-M_alt    "P 1"
_space_group_IT_number       1

loop_
  _space_group_symop_operation_xyz
  'x, y, z'

loop_
  _atom_site_type_symbol
  _atom_site_label
  _atom_site_symmetry_multiplicity
  _atom_site_fract_x
  _atom_site_fract_y
  _atom_site_fract_z
  _atom_site_occupancy
  Rh  Rh1       1.0  0.20849  0.20849  0.80928  1.0000
  Rh  Rh2       1.0  0.79151  0.79151  0.19072  1.0000
  Rh  Rh3       1.0  0.50000  0.50000  0.50000  1.0000
  N   N1        1.0  0.86814  0.86814  0.47738  1.0000
  N   N2        1.0  0.13186  0.13186  0.52262  1.0000
  N   N3        1.0  0.37939  0.37939  0.93010  1.0000
  N   N4        1.0  0.62061  0.62061  0.06990  1.0000
