data_image0
_chemical_formula_structural       Rh3Se4
_chemical_formula_sum              "Rh3 Se4"
_cell_length_a       6.56444
_cell_length_b       6.56444
_cell_length_c       6.43056
_cell_angle_alpha    63.4973
_cell_angle_beta     63.4973
_cell_angle_gamma    32.8639

_space_group_name_H-M_alt    "P 1"
_space_group_IT_number       1

loop_
  _space_group_symop_operation_xyz
  'x, y, z'

loop_
  _atom_site_type_symbol
  _atom_site_label
  _atom_site_symmetry_multiplicity
  _atom_site_fract_x
  _atom_site_fract_y
  _atom_site_fract_z
  _atom_site_occupancy
  Rh  Rh1       1.0  0.23278  0.23278  0.78954  1.0000
  Rh  Rh2       1.0  0.76722  0.76722  0.21046  1.0000
  Rh  Rh3       1.0  0.50000  0.50000  0.50000  1.0000
  Se  Se1       1.0  0.86517  0.86517  0.48020  1.0000
  Se  Se2       1.0  0.13483  0.13483  0.51980  1.0000
  Se  Se3       1.0  0.37993  0.37993  0.95057  1.0000
  Se  Se4       1.0  0.62007  0.62007  0.04943  1.0000
