data_image0
_chemical_formula_structural       Rh8Se16
_chemical_formula_sum              "Rh8 Se16"
_cell_length_a       3.78654
_cell_length_b       6.03706
_cell_length_c       21.1349
_cell_angle_alpha    90
_cell_angle_beta     90
_cell_angle_gamma    90

_space_group_name_H-M_alt    "P 1"
_space_group_IT_number       1

loop_
  _space_group_symop_operation_xyz
  'x, y, z'

loop_
  _atom_site_type_symbol
  _atom_site_label
  _atom_site_symmetry_multiplicity
  _atom_site_fract_x
  _atom_site_fract_y
  _atom_site_fract_z
  _atom_site_occupancy
  Rh  Rh1       1.0  0.25000  0.08221  0.57490  1.0000
  Rh  Rh2       1.0  0.25000  0.41779  0.07490  1.0000
  Rh  Rh3       1.0  0.75000  0.91779  0.42510  1.0000
  Rh  Rh4       1.0  0.75000  0.58221  0.92510  1.0000
  Rh  Rh5       1.0  0.25000  0.06662  0.80639  1.0000
  Rh  Rh6       1.0  0.25000  0.43338  0.30639  1.0000
  Rh  Rh7       1.0  0.75000  0.93338  0.19361  1.0000
  Rh  Rh8       1.0  0.75000  0.56662  0.69361  1.0000
  Se  Se1       1.0  0.25000  0.44084  0.86035  1.0000
  Se  Se2       1.0  0.25000  0.05916  0.36035  1.0000
  Se  Se3       1.0  0.75000  0.55916  0.13965  1.0000
  Se  Se4       1.0  0.75000  0.94084  0.63965  1.0000
  Se  Se5       1.0  0.75000  0.18964  0.73754  1.0000
  Se  Se6       1.0  0.75000  0.31036  0.23754  1.0000
  Se  Se7       1.0  0.25000  0.81036  0.26246  1.0000
  Se  Se8       1.0  0.25000  0.68964  0.76246  1.0000
  Se  Se9       1.0  0.75000  0.96235  0.87967  1.0000
  Se  Se10      1.0  0.75000  0.53765  0.37967  1.0000
  Se  Se11      1.0  0.25000  0.03765  0.12033  1.0000
  Se  Se12      1.0  0.25000  0.46235  0.62033  1.0000
  Se  Se13      1.0  0.75000  0.22475  0.50568  1.0000
  Se  Se14      1.0  0.75000  0.27525  0.00568  1.0000
  Se  Se15      1.0  0.25000  0.77525  0.49432  1.0000
  Se  Se16      1.0  0.25000  0.72475  0.99432  1.0000
