data_image0
_chemical_formula_structural       Se2Rh6
_chemical_formula_sum              "Se2 Rh6"
_cell_length_a       8.65349
_cell_length_b       8.65349
_cell_length_c       8.65349
_cell_angle_alpha    154.297
_cell_angle_beta     154.297
_cell_angle_gamma    36.6679

_space_group_name_H-M_alt    "P 1"
_space_group_IT_number       1

loop_
  _space_group_symop_operation_xyz
  'x, y, z'

loop_
  _atom_site_type_symbol
  _atom_site_label
  _atom_site_symmetry_multiplicity
  _atom_site_fract_x
  _atom_site_fract_y
  _atom_site_fract_z
  _atom_site_occupancy
  Se  Se1       1.0  0.85507  0.85507  0.00000  1.0000
  Se  Se2       1.0  0.14493  0.14493  0.00000  1.0000
  Rh  Rh1       1.0  0.00000  0.50000  0.50000  1.0000
  Rh  Rh2       1.0  0.50000  0.00000  0.50000  1.0000
  Rh  Rh3       1.0  0.75000  0.25000  0.50000  1.0000
  Rh  Rh4       1.0  0.25000  0.75000  0.50000  1.0000
  Rh  Rh5       1.0  0.61644  0.61644  0.00000  1.0000
  Rh  Rh6       1.0  0.38356  0.38356  0.00000  1.0000
