data_image0
_chemical_formula_structural       Se9Rh13
_chemical_formula_sum              "Se9 Rh13"
_cell_length_a       7.86177
_cell_length_b       7.86177
_cell_length_c       6.85067
_cell_angle_alpha    90
_cell_angle_beta     90
_cell_angle_gamma    120

_space_group_name_H-M_alt    "P 1"
_space_group_IT_number       1

loop_
  _space_group_symop_operation_xyz
  'x, y, z'

loop_
  _atom_site_type_symbol
  _atom_site_label
  _atom_site_symmetry_multiplicity
  _atom_site_fract_x
  _atom_site_fract_y
  _atom_site_fract_z
  _atom_site_occupancy
  Se  Se1       1.0  0.00000  0.00000  0.50000  1.0000
  Se  Se2       1.0  0.33333  0.66667  0.64977  1.0000
  Se  Se3       1.0  0.66667  0.33333  0.35023  1.0000
  Se  Se4       1.0  0.19008  0.80992  0.20417  1.0000
  Se  Se5       1.0  0.19008  0.38016  0.20417  1.0000
  Se  Se6       1.0  0.61984  0.80992  0.20417  1.0000
  Se  Se7       1.0  0.38016  0.19008  0.79583  1.0000
  Se  Se8       1.0  0.80992  0.61984  0.79583  1.0000
  Se  Se9       1.0  0.80992  0.19008  0.79583  1.0000
  Rh  Rh1       1.0  0.00000  0.00000  0.00000  1.0000
  Rh  Rh2       1.0  0.50000  0.00000  0.00000  1.0000
  Rh  Rh3       1.0  0.00000  0.50000  0.00000  1.0000
  Rh  Rh4       1.0  0.50000  0.50000  0.00000  1.0000
  Rh  Rh5       1.0  0.50000  0.00000  0.50000  1.0000
  Rh  Rh6       1.0  0.00000  0.50000  0.50000  1.0000
  Rh  Rh7       1.0  0.50000  0.50000  0.50000  1.0000
  Rh  Rh8       1.0  0.16408  0.83592  0.74675  1.0000
  Rh  Rh9       1.0  0.16408  0.32817  0.74675  1.0000
  Rh  Rh10      1.0  0.67183  0.83592  0.74675  1.0000
  Rh  Rh11      1.0  0.32817  0.16408  0.25325  1.0000
  Rh  Rh12      1.0  0.83592  0.67183  0.25325  1.0000
  Rh  Rh13      1.0  0.83592  0.16408  0.25325  1.0000
