data_image0
_chemical_formula_structural       Rh4Se8
_chemical_formula_sum              "Rh4 Se8"
_cell_length_a       8.33038
_cell_length_b       8.33038
_cell_length_c       11.9802
_cell_angle_alpha    43.1222
_cell_angle_beta     43.1222
_cell_angle_gamma    26.4789

_space_group_name_H-M_alt    "P 1"
_space_group_IT_number       1

loop_
  _space_group_symop_operation_xyz
  'x, y, z'

loop_
  _atom_site_type_symbol
  _atom_site_label
  _atom_site_symmetry_multiplicity
  _atom_site_fract_x
  _atom_site_fract_y
  _atom_site_fract_z
  _atom_site_occupancy
  Rh  Rh1       1.0  0.75790  0.75790  0.85378  1.0000
  Rh  Rh2       1.0  0.24210  0.24210  0.14622  1.0000
  Rh  Rh3       1.0  0.38634  0.38634  0.42747  1.0000
  Rh  Rh4       1.0  0.61366  0.61366  0.57253  1.0000
  Se  Se1       1.0  0.13236  0.13236  0.91519  1.0000
  Se  Se2       1.0  0.86764  0.86764  0.08481  1.0000
  Se  Se3       1.0  0.89516  0.89516  0.55295  1.0000
  Se  Se4       1.0  0.10484  0.10484  0.44705  1.0000
  Se  Se5       1.0  0.62702  0.62702  0.16671  1.0000
  Se  Se6       1.0  0.37298  0.37298  0.83329  1.0000
  Se  Se7       1.0  0.15348  0.15348  0.66917  1.0000
  Se  Se8       1.0  0.84652  0.84652  0.33083  1.0000
