data_image0
_chemical_formula_structural       Rh3S8
_chemical_formula_sum              "Rh3 S8"
_cell_length_a       5.72047
_cell_length_b       5.72047
_cell_length_c       5.72047
_cell_angle_alpha    90.5322
_cell_angle_beta     90.5322
_cell_angle_gamma    90.5322

_space_group_name_H-M_alt    "P 1"
_space_group_IT_number       1

loop_
  _space_group_symop_operation_xyz
  'x, y, z'

loop_
  _atom_site_type_symbol
  _atom_site_label
  _atom_site_symmetry_multiplicity
  _atom_site_fract_x
  _atom_site_fract_y
  _atom_site_fract_z
  _atom_site_occupancy
  Rh  Rh1       1.0  0.50000  0.00000  0.50000  1.0000
  Rh  Rh2       1.0  0.00000  0.50000  0.50000  1.0000
  Rh  Rh3       1.0  0.50000  0.50000  0.00000  1.0000
  S   S1        1.0  0.60435  0.89646  0.10750  1.0000
  S   S2        1.0  0.89646  0.10750  0.60435  1.0000
  S   S3        1.0  0.10750  0.60435  0.89646  1.0000
  S   S4        1.0  0.61119  0.61119  0.61119  1.0000
  S   S5        1.0  0.38881  0.38881  0.38881  1.0000
  S   S6        1.0  0.89250  0.39565  0.10354  1.0000
  S   S7        1.0  0.10354  0.89250  0.39565  1.0000
  S   S8        1.0  0.39565  0.10354  0.89250  1.0000
