data_image0
_chemical_formula_structural       Se8Rh4
_chemical_formula_sum              "Se8 Rh4"
_cell_length_a       5.05536
_cell_length_b       7.74886
_cell_length_c       7.17895
_cell_angle_alpha    57.3605
_cell_angle_beta     90
_cell_angle_gamma    90

_space_group_name_H-M_alt    "P 1"
_space_group_IT_number       1

loop_
  _space_group_symop_operation_xyz
  'x, y, z'

loop_
  _atom_site_type_symbol
  _atom_site_label
  _atom_site_symmetry_multiplicity
  _atom_site_fract_x
  _atom_site_fract_y
  _atom_site_fract_z
  _atom_site_occupancy
  Se  Se1       1.0  0.21328  0.06229  0.37472  1.0000
  Se  Se2       1.0  0.71328  0.93771  0.12528  1.0000
  Se  Se3       1.0  0.78672  0.93771  0.62528  1.0000
  Se  Se4       1.0  0.28672  0.06229  0.87472  1.0000
  Se  Se5       1.0  0.78629  0.43773  0.62406  1.0000
  Se  Se6       1.0  0.28629  0.56227  0.87594  1.0000
  Se  Se7       1.0  0.21371  0.56227  0.37594  1.0000
  Se  Se8       1.0  0.71371  0.43773  0.12406  1.0000
  Rh  Rh1       1.0  0.99978  0.24987  0.99934  1.0000
  Rh  Rh2       1.0  0.49978  0.75013  0.50066  1.0000
  Rh  Rh3       1.0  0.00022  0.75013  0.00066  1.0000
  Rh  Rh4       1.0  0.50022  0.24987  0.49934  1.0000
