data_image0
_chemical_formula_structural       Rh4Se4
_chemical_formula_sum              "Rh4 Se4"
_cell_length_a       5.12421
_cell_length_b       5.12421
_cell_length_c       5.12421
_cell_angle_alpha    90
_cell_angle_beta     90
_cell_angle_gamma    90

_space_group_name_H-M_alt    "P 1"
_space_group_IT_number       1

loop_
  _space_group_symop_operation_xyz
  'x, y, z'

loop_
  _atom_site_type_symbol
  _atom_site_label
  _atom_site_symmetry_multiplicity
  _atom_site_fract_x
  _atom_site_fract_y
  _atom_site_fract_z
  _atom_site_occupancy
  Rh  Rh1       1.0  0.82111  0.67889  0.32111  1.0000
  Rh  Rh2       1.0  0.67889  0.32111  0.82111  1.0000
  Rh  Rh3       1.0  0.32111  0.82111  0.67889  1.0000
  Rh  Rh4       1.0  0.17889  0.17889  0.17889  1.0000
  Se  Se1       1.0  0.20050  0.29950  0.70050  1.0000
  Se  Se2       1.0  0.29950  0.70050  0.20050  1.0000
  Se  Se3       1.0  0.70050  0.20050  0.29950  1.0000
  Se  Se4       1.0  0.79950  0.79950  0.79950  1.0000
