data_image0
_chemical_formula_structural       Se12Rh8
_chemical_formula_sum              "Se12 Rh8"
_cell_length_a       6.89706
_cell_length_b       7.24278
_cell_length_c       9.00179
_cell_angle_alpha    90
_cell_angle_beta     90
_cell_angle_gamma    90

_space_group_name_H-M_alt    "P 1"
_space_group_IT_number       1

loop_
  _space_group_symop_operation_xyz
  'x, y, z'

loop_
  _atom_site_type_symbol
  _atom_site_label
  _atom_site_symmetry_multiplicity
  _atom_site_fract_x
  _atom_site_fract_y
  _atom_site_fract_z
  _atom_site_occupancy
  Se  Se1       1.0  0.25000  0.87650  0.45799  1.0000
  Se  Se2       1.0  0.75000  0.12350  0.54201  1.0000
  Se  Se3       1.0  0.51064  0.45950  0.30066  1.0000
  Se  Se4       1.0  0.01064  0.54050  0.69934  1.0000
  Se  Se5       1.0  0.48936  0.04050  0.80066  1.0000
  Se  Se6       1.0  0.01064  0.04050  0.80066  1.0000
  Se  Se7       1.0  0.48936  0.54050  0.69934  1.0000
  Se  Se8       1.0  0.98936  0.45950  0.30066  1.0000
  Se  Se9       1.0  0.51064  0.95950  0.19934  1.0000
  Se  Se10      1.0  0.25000  0.37650  0.04201  1.0000
  Se  Se11      1.0  0.98936  0.95950  0.19934  1.0000
  Se  Se12      1.0  0.75000  0.62350  0.95799  1.0000
  Rh  Rh1       1.0  0.25000  0.55033  0.48974  1.0000
  Rh  Rh2       1.0  0.25000  0.80897  0.72231  1.0000
  Rh  Rh3       1.0  0.75000  0.19103  0.27769  1.0000
  Rh  Rh4       1.0  0.75000  0.69103  0.22231  1.0000
  Rh  Rh5       1.0  0.25000  0.30897  0.77769  1.0000
  Rh  Rh6       1.0  0.25000  0.05033  0.01026  1.0000
  Rh  Rh7       1.0  0.75000  0.44967  0.51026  1.0000
  Rh  Rh8       1.0  0.75000  0.94967  0.98974  1.0000
