data_image0
_chemical_formula_structural       Rh4Se12
_chemical_formula_sum              "Rh4 Se12"
_cell_length_a       8.51854
_cell_length_b       8.51854
_cell_length_c       5.18345
_cell_angle_alpha    90
_cell_angle_beta     90
_cell_angle_gamma    114.81

_space_group_name_H-M_alt    "P 1"
_space_group_IT_number       1

loop_
  _space_group_symop_operation_xyz
  'x, y, z'

loop_
  _atom_site_type_symbol
  _atom_site_label
  _atom_site_symmetry_multiplicity
  _atom_site_fract_x
  _atom_site_fract_y
  _atom_site_fract_z
  _atom_site_occupancy
  Rh  Rh1       1.0  0.62855  0.37145  0.00000  1.0000
  Rh  Rh2       1.0  0.37145  0.62855  0.00000  1.0000
  Rh  Rh3       1.0  0.12855  0.87145  0.50000  1.0000
  Rh  Rh4       1.0  0.87145  0.12855  0.50000  1.0000
  Se  Se1       1.0  0.68213  0.68213  0.02938  1.0000
  Se  Se2       1.0  0.18213  0.18213  0.47062  1.0000
  Se  Se3       1.0  0.81787  0.81787  0.52938  1.0000
  Se  Se4       1.0  0.38899  0.61101  0.50000  1.0000
  Se  Se5       1.0  0.11338  0.61338  0.75000  1.0000
  Se  Se6       1.0  0.88899  0.11101  0.00000  1.0000
  Se  Se7       1.0  0.88662  0.38662  0.25000  1.0000
  Se  Se8       1.0  0.31787  0.31787  0.97062  1.0000
  Se  Se9       1.0  0.61101  0.38899  0.50000  1.0000
  Se  Se10      1.0  0.11101  0.88899  0.00000  1.0000
  Se  Se11      1.0  0.38662  0.88662  0.25000  1.0000
  Se  Se12      1.0  0.61338  0.11338  0.75000  1.0000
