data_image0
_chemical_formula_structural       Rh9Se5
_chemical_formula_sum              "Rh9 Se5"
_cell_length_a       7.09015
_cell_length_b       7.09015
_cell_length_c       9.17378
_cell_angle_alpha    49.5298
_cell_angle_beta     49.5298
_cell_angle_gamma    47.5852

_space_group_name_H-M_alt    "P 1"
_space_group_IT_number       1

loop_
  _space_group_symop_operation_xyz
  'x, y, z'

loop_
  _atom_site_type_symbol
  _atom_site_label
  _atom_site_symmetry_multiplicity
  _atom_site_fract_x
  _atom_site_fract_y
  _atom_site_fract_z
  _atom_site_occupancy
  Rh  Rh1       1.0  0.49893  0.12265  0.29403  1.0000
  Rh  Rh2       1.0  0.87735  0.50107  0.70597  1.0000
  Rh  Rh3       1.0  0.26680  0.94595  0.08182  1.0000
  Rh  Rh4       1.0  0.98073  0.61401  0.30730  1.0000
  Rh  Rh5       1.0  0.38599  0.01927  0.69270  1.0000
  Rh  Rh6       1.0  0.67325  0.32675  0.50000  1.0000
  Rh  Rh7       1.0  0.05405  0.73320  0.91818  1.0000
  Rh  Rh8       1.0  0.76741  0.43908  0.09968  1.0000
  Rh  Rh9       1.0  0.56092  0.23259  0.90032  1.0000
  Se  Se1       1.0  0.03802  0.15278  0.59529  1.0000
  Se  Se2       1.0  0.42379  0.57621  0.00000  1.0000
  Se  Se3       1.0  0.84722  0.96198  0.40471  1.0000
  Se  Se4       1.0  0.21383  0.40628  0.78589  1.0000
  Se  Se5       1.0  0.59372  0.78617  0.21411  1.0000
