data_image0
_chemical_formula_structural       Rh12S16
_chemical_formula_sum              "Rh12 S16"
_cell_length_a       9.9327
_cell_length_b       9.9327
_cell_length_c       7.35062
_cell_angle_alpha    90
_cell_angle_beta     90
_cell_angle_gamma    120

_space_group_name_H-M_alt    "P 1"
_space_group_IT_number       1

loop_
  _space_group_symop_operation_xyz
  'x, y, z'

loop_
  _atom_site_type_symbol
  _atom_site_label
  _atom_site_symmetry_multiplicity
  _atom_site_fract_x
  _atom_site_fract_y
  _atom_site_fract_z
  _atom_site_occupancy
  Rh  Rh1       1.0  0.56429  0.08089  0.80821  1.0000
  Rh  Rh2       1.0  0.51660  0.43571  0.80821  1.0000
  Rh  Rh3       1.0  0.91911  0.48340  0.80821  1.0000
  Rh  Rh4       1.0  0.43571  0.51660  0.30821  1.0000
  Rh  Rh5       1.0  0.48340  0.91911  0.30821  1.0000
  Rh  Rh6       1.0  0.08089  0.56429  0.30821  1.0000
  Rh  Rh7       1.0  0.09276  0.25431  0.00279  1.0000
  Rh  Rh8       1.0  0.16155  0.90724  0.00279  1.0000
  Rh  Rh9       1.0  0.74569  0.83845  0.00279  1.0000
  Rh  Rh10      1.0  0.90724  0.16155  0.50279  1.0000
  Rh  Rh11      1.0  0.83845  0.74569  0.50279  1.0000
  Rh  Rh12      1.0  0.25431  0.09276  0.50279  1.0000
  S   S1        1.0  0.06021  0.65019  0.03031  1.0000
  S   S2        1.0  0.58997  0.93979  0.03031  1.0000
  S   S3        1.0  0.34981  0.41003  0.03031  1.0000
  S   S4        1.0  0.93979  0.58997  0.53031  1.0000
  S   S5        1.0  0.41003  0.34981  0.53031  1.0000
  S   S6        1.0  0.65019  0.06021  0.53031  1.0000
  S   S7        1.0  0.01871  0.32501  0.74648  1.0000
  S   S8        1.0  0.30630  0.98129  0.74648  1.0000
  S   S9        1.0  0.67499  0.69370  0.74648  1.0000
  S   S10       1.0  0.98129  0.30630  0.24648  1.0000
  S   S11       1.0  0.69370  0.67499  0.24648  1.0000
  S   S12       1.0  0.32501  0.01871  0.24648  1.0000
  S   S13       1.0  0.00000  0.00000  0.06391  1.0000
  S   S14       1.0  0.00000  0.00000  0.56391  1.0000
  S   S15       1.0  0.33333  0.66667  0.38712  1.0000
  S   S16       1.0  0.66667  0.33333  0.88712  1.0000
