data_image0
_chemical_formula_structural       Se4Rh4
_chemical_formula_sum              "Se4 Rh4"
_cell_length_a       3.83291
_cell_length_b       5.76605
_cell_length_c       6.27373
_cell_angle_alpha    90
_cell_angle_beta     90
_cell_angle_gamma    90

_space_group_name_H-M_alt    "P 1"
_space_group_IT_number       1

loop_
  _space_group_symop_operation_xyz
  'x, y, z'

loop_
  _atom_site_type_symbol
  _atom_site_label
  _atom_site_symmetry_multiplicity
  _atom_site_fract_x
  _atom_site_fract_y
  _atom_site_fract_z
  _atom_site_occupancy
  Se  Se1       1.0  0.25000  0.71533  0.07995  1.0000
  Se  Se2       1.0  0.75000  0.28467  0.92005  1.0000
  Se  Se3       1.0  0.25000  0.21533  0.42005  1.0000
  Se  Se4       1.0  0.75000  0.78467  0.57995  1.0000
  Rh  Rh1       1.0  0.25000  0.52596  0.70515  1.0000
  Rh  Rh2       1.0  0.75000  0.47404  0.29485  1.0000
  Rh  Rh3       1.0  0.25000  0.02596  0.79485  1.0000
  Rh  Rh4       1.0  0.75000  0.97404  0.20515  1.0000
