data_image0
_chemical_formula_structural       Rh6Se10
_chemical_formula_sum              "Rh6 Se10"
_cell_length_a       3.652
_cell_length_b       9.34004
_cell_length_c       10.4333
_cell_angle_alpha    90
_cell_angle_beta     90
_cell_angle_gamma    90

_space_group_name_H-M_alt    "P 1"
_space_group_IT_number       1

loop_
  _space_group_symop_operation_xyz
  'x, y, z'

loop_
  _atom_site_type_symbol
  _atom_site_label
  _atom_site_symmetry_multiplicity
  _atom_site_fract_x
  _atom_site_fract_y
  _atom_site_fract_z
  _atom_site_occupancy
  Rh  Rh1       1.0  0.50000  0.32703  0.92179  1.0000
  Rh  Rh2       1.0  0.50000  0.82703  0.57821  1.0000
  Rh  Rh3       1.0  0.00000  0.50000  0.50000  1.0000
  Rh  Rh4       1.0  0.00000  0.00000  0.00000  1.0000
  Rh  Rh5       1.0  0.50000  0.67297  0.07821  1.0000
  Rh  Rh6       1.0  0.50000  0.17297  0.42179  1.0000
  Se  Se1       1.0  0.50000  0.65036  0.40917  1.0000
  Se  Se2       1.0  0.50000  0.34964  0.59083  1.0000
  Se  Se3       1.0  0.00000  0.18591  0.82685  1.0000
  Se  Se4       1.0  0.50000  0.84964  0.90917  1.0000
  Se  Se5       1.0  0.00000  0.31409  0.32685  1.0000
  Se  Se6       1.0  0.00000  0.81409  0.17315  1.0000
  Se  Se7       1.0  0.00000  0.68591  0.67315  1.0000
  Se  Se8       1.0  0.00000  0.50000  0.00000  1.0000
  Se  Se9       1.0  0.00000  0.00000  0.50000  1.0000
  Se  Se10      1.0  0.50000  0.15036  0.09083  1.0000
