data_image0
_chemical_formula_structural       Rh6S16
_chemical_formula_sum              "Rh6 S16"
_cell_length_a       5.71522
_cell_length_b       5.71371
_cell_length_c       12.7749
_cell_angle_alpha    64.0223
_cell_angle_beta     90
_cell_angle_gamma    90

_space_group_name_H-M_alt    "P 1"
_space_group_IT_number       1

loop_
  _space_group_symop_operation_xyz
  'x, y, z'

loop_
  _atom_site_type_symbol
  _atom_site_label
  _atom_site_symmetry_multiplicity
  _atom_site_fract_x
  _atom_site_fract_y
  _atom_site_fract_z
  _atom_site_occupancy
  Rh  Rh1       1.0  0.49004  0.75600  0.74921  1.0000
  Rh  Rh2       1.0  0.50996  0.24400  0.25079  1.0000
  Rh  Rh3       1.0  0.50000  0.00000  0.00000  1.0000
  Rh  Rh4       1.0  0.99004  0.24400  0.75079  1.0000
  Rh  Rh5       1.0  0.00996  0.75600  0.24921  1.0000
  Rh  Rh6       1.0  0.00000  0.00000  0.50000  1.0000
  S   S1        1.0  0.60896  0.69823  0.19585  1.0000
  S   S2        1.0  0.60230  0.19326  0.69704  1.0000
  S   S3        1.0  0.60073  0.65920  0.94585  1.0000
  S   S4        1.0  0.60765  0.15677  0.44792  1.0000
  S   S5        1.0  0.89235  0.15677  0.94792  1.0000
  S   S6        1.0  0.89770  0.19326  0.19704  1.0000
  S   S7        1.0  0.89927  0.65920  0.44585  1.0000
  S   S8        1.0  0.89104  0.69823  0.69585  1.0000
  S   S9        1.0  0.10230  0.80674  0.80296  1.0000
  S   S10       1.0  0.10765  0.84323  0.05208  1.0000
  S   S11       1.0  0.10073  0.34080  0.55415  1.0000
  S   S12       1.0  0.10896  0.30177  0.30415  1.0000
  S   S13       1.0  0.39927  0.34080  0.05415  1.0000
  S   S14       1.0  0.39104  0.30177  0.80415  1.0000
  S   S15       1.0  0.39770  0.80674  0.30296  1.0000
  S   S16       1.0  0.39235  0.84323  0.55208  1.0000
