data_image0
_chemical_formula_structural       Sb4Ag6
_chemical_formula_sum              "Sb4 Ag6"
_cell_length_a       7.31099
_cell_length_b       7.31099
_cell_length_c       7.31099
_cell_angle_alpha    134.31
_cell_angle_beta     123.488
_cell_angle_gamma    75.5045

_space_group_name_H-M_alt    "P 1"
_space_group_IT_number       1

loop_
  _space_group_symop_operation_xyz
  'x, y, z'

loop_
  _atom_site_type_symbol
  _atom_site_label
  _atom_site_symmetry_multiplicity
  _atom_site_fract_x
  _atom_site_fract_y
  _atom_site_fract_z
  _atom_site_occupancy
  Sb  Sb1       1.0  0.58576  0.33693  0.24884  1.0000
  Sb  Sb2       1.0  0.41424  0.66307  0.75116  1.0000
  Sb  Sb3       1.0  0.91191  0.16307  0.74884  1.0000
  Sb  Sb4       1.0  0.08809  0.83693  0.25116  1.0000
  Ag  Ag1       1.0  0.55452  0.90645  0.64807  1.0000
  Ag  Ag2       1.0  0.44548  0.09355  0.35193  1.0000
  Ag  Ag3       1.0  0.25837  0.40645  0.85193  1.0000
  Ag  Ag4       1.0  0.74163  0.59355  0.14807  1.0000
  Ag  Ag5       1.0  0.00000  0.75000  0.75000  1.0000
  Ag  Ag6       1.0  0.00000  0.25000  0.25000  1.0000
