data_image0
_chemical_formula_structural       Ru6Cl16
_chemical_formula_sum              "Ru6 Cl16"
_cell_length_a       5.99382
_cell_length_b       5.99595
_cell_length_c       13.1372
_cell_angle_alpha    65.9279
_cell_angle_beta     90
_cell_angle_gamma    90

_space_group_name_H-M_alt    "P 1"
_space_group_IT_number       1

loop_
  _space_group_symop_operation_xyz
  'x, y, z'

loop_
  _atom_site_type_symbol
  _atom_site_label
  _atom_site_symmetry_multiplicity
  _atom_site_fract_x
  _atom_site_fract_y
  _atom_site_fract_z
  _atom_site_occupancy
  Ru  Ru1       1.0  0.47038  0.76770  0.75017  1.0000
  Ru  Ru2       1.0  0.52962  0.23230  0.24983  1.0000
  Ru  Ru3       1.0  0.50000  0.00000  0.00000  1.0000
  Ru  Ru4       1.0  0.97038  0.23230  0.74983  1.0000
  Ru  Ru5       1.0  0.02962  0.76770  0.25017  1.0000
  Ru  Ru6       1.0  0.00000  0.00000  0.50000  1.0000
  Cl  Cl1       1.0  0.68262  0.66884  0.16990  1.0000
  Cl  Cl2       1.0  0.62543  0.15765  0.68009  1.0000
  Cl  Cl3       1.0  0.61550  0.72961  0.92006  1.0000
  Cl  Cl4       1.0  0.67102  0.21505  0.42174  1.0000
  Cl  Cl5       1.0  0.82898  0.21505  0.92174  1.0000
  Cl  Cl6       1.0  0.87457  0.15765  0.18009  1.0000
  Cl  Cl7       1.0  0.88450  0.72961  0.42006  1.0000
  Cl  Cl8       1.0  0.81738  0.66884  0.66990  1.0000
  Cl  Cl9       1.0  0.12543  0.84235  0.81991  1.0000
  Cl  Cl10      1.0  0.17102  0.78495  0.07826  1.0000
  Cl  Cl11      1.0  0.11550  0.27039  0.57994  1.0000
  Cl  Cl12      1.0  0.18262  0.33116  0.33010  1.0000
  Cl  Cl13      1.0  0.38450  0.27039  0.07994  1.0000
  Cl  Cl14      1.0  0.31738  0.33116  0.83010  1.0000
  Cl  Cl15      1.0  0.37457  0.84235  0.31991  1.0000
  Cl  Cl16      1.0  0.32898  0.78495  0.57826  1.0000
