data_image0
_chemical_formula_structural       Ru2Se4
_chemical_formula_sum              "Ru2 Se4"
_cell_length_a       5.19517
_cell_length_b       5.19517
_cell_length_c       5.19517
_cell_angle_alpha    108.312
_cell_angle_beta     108.312
_cell_angle_gamma    111.815

_space_group_name_H-M_alt    "P 1"
_space_group_IT_number       1

loop_
  _space_group_symop_operation_xyz
  'x, y, z'

loop_
  _atom_site_type_symbol
  _atom_site_label
  _atom_site_symmetry_multiplicity
  _atom_site_fract_x
  _atom_site_fract_y
  _atom_site_fract_z
  _atom_site_occupancy
  Ru  Ru1       1.0  0.25000  0.25000  0.00000  1.0000
  Ru  Ru2       1.0  0.75000  0.75000  0.00000  1.0000
  Se  Se1       1.0  0.67425  0.17425  0.84851  1.0000
  Se  Se2       1.0  0.32575  0.82575  0.15149  1.0000
  Se  Se3       1.0  0.82575  0.67425  0.50000  1.0000
  Se  Se4       1.0  0.17425  0.32575  0.50000  1.0000
