data_image0
_chemical_formula_structural       Hg10Ru6
_chemical_formula_sum              "Hg10 Ru6"
_cell_length_a       8.00987
_cell_length_b       8.00987
_cell_length_c       8.00987
_cell_angle_alpha    127.626
_cell_angle_beta     127.626
_cell_angle_gamma    77.2321

_space_group_name_H-M_alt    "P 1"
_space_group_IT_number       1

loop_
  _space_group_symop_operation_xyz
  'x, y, z'

loop_
  _atom_site_type_symbol
  _atom_site_label
  _atom_site_symmetry_multiplicity
  _atom_site_fract_x
  _atom_site_fract_y
  _atom_site_fract_z
  _atom_site_occupancy
  Hg  Hg1       1.0  0.50829  0.68088  0.50000  1.0000
  Hg  Hg2       1.0  0.49171  0.31912  0.50000  1.0000
  Hg  Hg3       1.0  0.50000  0.50000  0.00000  1.0000
  Hg  Hg4       1.0  0.00000  0.00000  0.00000  1.0000
  Hg  Hg5       1.0  0.18088  0.00829  0.50000  1.0000
  Hg  Hg6       1.0  0.00829  0.50829  0.82741  1.0000
  Hg  Hg7       1.0  0.68088  0.18088  0.17259  1.0000
  Hg  Hg8       1.0  0.31912  0.81912  0.82741  1.0000
  Hg  Hg9       1.0  0.99171  0.49171  0.17259  1.0000
  Hg  Hg10      1.0  0.81912  0.99171  0.50000  1.0000
  Ru  Ru1       1.0  0.87503  0.62497  0.50000  1.0000
  Ru  Ru2       1.0  0.62497  0.12497  0.74994  1.0000
  Ru  Ru3       1.0  0.37503  0.87503  0.25006  1.0000
  Ru  Ru4       1.0  0.12497  0.37503  0.50000  1.0000
  Ru  Ru5       1.0  0.25000  0.25000  0.00000  1.0000
  Ru  Ru6       1.0  0.75000  0.75000  0.00000  1.0000
