data_image0
_chemical_formula_structural       Ru6Se20
_chemical_formula_sum              "Ru6 Se20"
_cell_length_a       13.6237
_cell_length_b       13.6237
_cell_length_c       3.34886
_cell_angle_alpha    90
_cell_angle_beta     90
_cell_angle_gamma    120

_space_group_name_H-M_alt    "P 1"
_space_group_IT_number       1

loop_
  _space_group_symop_operation_xyz
  'x, y, z'

loop_
  _atom_site_type_symbol
  _atom_site_label
  _atom_site_symmetry_multiplicity
  _atom_site_fract_x
  _atom_site_fract_y
  _atom_site_fract_z
  _atom_site_occupancy
  Ru  Ru1       1.0  0.50715  0.63745  0.25000  1.0000
  Ru  Ru2       1.0  0.36255  0.86970  0.25000  1.0000
  Ru  Ru3       1.0  0.13030  0.49285  0.25000  1.0000
  Ru  Ru4       1.0  0.49285  0.36255  0.75000  1.0000
  Ru  Ru5       1.0  0.63745  0.13030  0.75000  1.0000
  Ru  Ru6       1.0  0.86970  0.50715  0.75000  1.0000
  Se  Se1       1.0  0.84999  0.04542  0.25000  1.0000
  Se  Se2       1.0  0.95458  0.80457  0.25000  1.0000
  Se  Se3       1.0  0.19543  0.15001  0.25000  1.0000
  Se  Se4       1.0  0.15001  0.95458  0.75000  1.0000
  Se  Se5       1.0  0.04542  0.19543  0.75000  1.0000
  Se  Se6       1.0  0.80457  0.84999  0.75000  1.0000
  Se  Se7       1.0  0.57690  0.97033  0.25000  1.0000
  Se  Se8       1.0  0.02967  0.60657  0.25000  1.0000
  Se  Se9       1.0  0.39343  0.42310  0.25000  1.0000
  Se  Se10      1.0  0.42310  0.02967  0.75000  1.0000
  Se  Se11      1.0  0.97033  0.39343  0.75000  1.0000
  Se  Se12      1.0  0.60657  0.57690  0.75000  1.0000
  Se  Se13      1.0  0.79081  0.19790  0.25000  1.0000
  Se  Se14      1.0  0.80210  0.59291  0.25000  1.0000
  Se  Se15      1.0  0.40709  0.20919  0.25000  1.0000
  Se  Se16      1.0  0.20919  0.80210  0.75000  1.0000
  Se  Se17      1.0  0.19790  0.40709  0.75000  1.0000
  Se  Se18      1.0  0.59291  0.79081  0.75000  1.0000
  Se  Se19      1.0  0.66667  0.33333  0.75000  1.0000
  Se  Se20      1.0  0.33333  0.66667  0.25000  1.0000
