data_image0
_chemical_formula_structural       Ru3S8
_chemical_formula_sum              "Ru3 S8"
_cell_length_a       5.70725
_cell_length_b       5.70725
_cell_length_c       5.70725
_cell_angle_alpha    90.6964
_cell_angle_beta     90.6964
_cell_angle_gamma    90.6964

_space_group_name_H-M_alt    "P 1"
_space_group_IT_number       1

loop_
  _space_group_symop_operation_xyz
  'x, y, z'

loop_
  _atom_site_type_symbol
  _atom_site_label
  _atom_site_symmetry_multiplicity
  _atom_site_fract_x
  _atom_site_fract_y
  _atom_site_fract_z
  _atom_site_occupancy
  Ru  Ru1       1.0  0.00000  0.50000  0.50000  1.0000
  Ru  Ru2       1.0  0.50000  0.00000  0.50000  1.0000
  Ru  Ru3       1.0  0.50000  0.50000  0.00000  1.0000
  S   S1        1.0  0.40934  0.88544  0.10975  1.0000
  S   S2        1.0  0.10975  0.40934  0.88544  1.0000
  S   S3        1.0  0.88544  0.10975  0.40934  1.0000
  S   S4        1.0  0.59066  0.11456  0.89025  1.0000
  S   S5        1.0  0.89025  0.59066  0.11456  1.0000
  S   S6        1.0  0.11456  0.89025  0.59066  1.0000
  S   S7        1.0  0.61333  0.61333  0.61333  1.0000
  S   S8        1.0  0.38667  0.38667  0.38667  1.0000
