data_image0
_chemical_formula_structural       Ru8Ag8
_chemical_formula_sum              "Ru8 Ag8"
_cell_length_a       5.86204
_cell_length_b       5.86204
_cell_length_c       8.26038
_cell_angle_alpha    90
_cell_angle_beta     90
_cell_angle_gamma    90

_space_group_name_H-M_alt    "P 1"
_space_group_IT_number       1

loop_
  _space_group_symop_operation_xyz
  'x, y, z'

loop_
  _atom_site_type_symbol
  _atom_site_label
  _atom_site_symmetry_multiplicity
  _atom_site_fract_x
  _atom_site_fract_y
  _atom_site_fract_z
  _atom_site_occupancy
  Ru  Ru1       1.0  0.81971  0.85333  0.00000  1.0000
  Ru  Ru2       1.0  0.14667  0.81971  0.50000  1.0000
  Ru  Ru3       1.0  0.85333  0.18029  0.50000  1.0000
  Ru  Ru4       1.0  0.18029  0.14667  0.00000  1.0000
  Ru  Ru5       1.0  0.50000  0.00000  0.50000  1.0000
  Ru  Ru6       1.0  0.00000  0.50000  0.00000  1.0000
  Ru  Ru7       1.0  0.00000  0.00000  0.75000  1.0000
  Ru  Ru8       1.0  0.00000  0.00000  0.25000  1.0000
  Ag  Ag1       1.0  0.22638  0.39655  0.67109  1.0000
  Ag  Ag2       1.0  0.60345  0.22638  0.17109  1.0000
  Ag  Ag3       1.0  0.39655  0.77362  0.17109  1.0000
  Ag  Ag4       1.0  0.77362  0.60345  0.67109  1.0000
  Ag  Ag5       1.0  0.77362  0.60345  0.32891  1.0000
  Ag  Ag6       1.0  0.39655  0.77362  0.82891  1.0000
  Ag  Ag7       1.0  0.60345  0.22638  0.82891  1.0000
  Ag  Ag8       1.0  0.22638  0.39655  0.32891  1.0000
