data_image0
_chemical_formula_structural       Ru4Se8
_chemical_formula_sum              "Ru4 Se8"
_cell_length_a       9.39827
_cell_length_b       9.39827
_cell_length_c       6.41261
_cell_angle_alpha    90
_cell_angle_beta     90
_cell_angle_gamma    155.374

_space_group_name_H-M_alt    "P 1"
_space_group_IT_number       1

loop_
  _space_group_symop_operation_xyz
  'x, y, z'

loop_
  _atom_site_type_symbol
  _atom_site_label
  _atom_site_symmetry_multiplicity
  _atom_site_fract_x
  _atom_site_fract_y
  _atom_site_fract_z
  _atom_site_occupancy
  Ru  Ru1       1.0  0.59019  0.40981  0.76394  1.0000
  Ru  Ru2       1.0  0.40981  0.59019  0.26394  1.0000
  Ru  Ru3       1.0  0.16495  0.83505  0.29231  1.0000
  Ru  Ru4       1.0  0.83505  0.16495  0.79231  1.0000
  Se  Se1       1.0  0.94675  0.05325  0.02528  1.0000
  Se  Se2       1.0  0.05325  0.94675  0.52528  1.0000
  Se  Se3       1.0  0.14989  0.85011  0.89600  1.0000
  Se  Se4       1.0  0.85011  0.14989  0.39600  1.0000
  Se  Se5       1.0  0.29392  0.70608  0.04547  1.0000
  Se  Se6       1.0  0.70608  0.29392  0.54547  1.0000
  Se  Se7       1.0  0.59587  0.40413  0.16270  1.0000
  Se  Se8       1.0  0.40413  0.59587  0.66270  1.0000
