data_image0
_chemical_formula_structural       F8Ru12
_chemical_formula_sum              "F8 Ru12"
_cell_length_a       5.18854
_cell_length_b       5.18854
_cell_length_c       12.1398
_cell_angle_alpha    90
_cell_angle_beta     90
_cell_angle_gamma    120

_space_group_name_H-M_alt    "P 1"
_space_group_IT_number       1

loop_
  _space_group_symop_operation_xyz
  'x, y, z'

loop_
  _atom_site_type_symbol
  _atom_site_label
  _atom_site_symmetry_multiplicity
  _atom_site_fract_x
  _atom_site_fract_y
  _atom_site_fract_z
  _atom_site_occupancy
  F   F1        1.0  0.00000  0.00000  0.25000  1.0000
  F   F2        1.0  0.00000  0.00000  0.75000  1.0000
  F   F3        1.0  0.33333  0.66667  0.25000  1.0000
  F   F4        1.0  0.66667  0.33333  0.75000  1.0000
  F   F5        1.0  0.33333  0.66667  0.64620  1.0000
  F   F6        1.0  0.66667  0.33333  0.14620  1.0000
  F   F7        1.0  0.66667  0.33333  0.35380  1.0000
  F   F8        1.0  0.33333  0.66667  0.85380  1.0000
  Ru  Ru1       1.0  0.17142  0.34284  0.42225  1.0000
  Ru  Ru2       1.0  0.17142  0.82858  0.42225  1.0000
  Ru  Ru3       1.0  0.65716  0.82858  0.42225  1.0000
  Ru  Ru4       1.0  0.82858  0.17142  0.92225  1.0000
  Ru  Ru5       1.0  0.34284  0.17142  0.92225  1.0000
  Ru  Ru6       1.0  0.82858  0.65716  0.92225  1.0000
  Ru  Ru7       1.0  0.82858  0.65716  0.57775  1.0000
  Ru  Ru8       1.0  0.82858  0.17142  0.57775  1.0000
  Ru  Ru9       1.0  0.34284  0.17142  0.57775  1.0000
  Ru  Ru10      1.0  0.17142  0.82858  0.07775  1.0000
  Ru  Ru11      1.0  0.65716  0.82858  0.07775  1.0000
  Ru  Ru12      1.0  0.17142  0.34284  0.07775  1.0000
