data_image0
_chemical_formula_structural       Ru3I8
_chemical_formula_sum              "Ru3 I8"
_cell_length_a       6.84222
_cell_length_b       6.84222
_cell_length_c       6.84222
_cell_angle_alpha    93.1577
_cell_angle_beta     93.1577
_cell_angle_gamma    93.1577

_space_group_name_H-M_alt    "P 1"
_space_group_IT_number       1

loop_
  _space_group_symop_operation_xyz
  'x, y, z'

loop_
  _atom_site_type_symbol
  _atom_site_label
  _atom_site_symmetry_multiplicity
  _atom_site_fract_x
  _atom_site_fract_y
  _atom_site_fract_z
  _atom_site_occupancy
  Ru  Ru1       1.0  0.50000  0.00000  0.50000  1.0000
  Ru  Ru2       1.0  0.00000  0.50000  0.50000  1.0000
  Ru  Ru3       1.0  0.50000  0.50000  0.00000  1.0000
  I   I1        1.0  0.62946  0.85477  0.16599  1.0000
  I   I2        1.0  0.85477  0.16599  0.62946  1.0000
  I   I3        1.0  0.16599  0.62946  0.85477  1.0000
  I   I4        1.0  0.66719  0.66719  0.66719  1.0000
  I   I5        1.0  0.33281  0.33281  0.33281  1.0000
  I   I6        1.0  0.83401  0.37054  0.14523  1.0000
  I   I7        1.0  0.14523  0.83401  0.37054  1.0000
  I   I8        1.0  0.37054  0.14523  0.83401  1.0000
