data_image0
_chemical_formula_structural       Ru6Se10
_chemical_formula_sum              "Ru6 Se10"
_cell_length_a       3.4771
_cell_length_b       8.44569
_cell_length_c       13.0015
_cell_angle_alpha    90
_cell_angle_beta     90
_cell_angle_gamma    90

_space_group_name_H-M_alt    "P 1"
_space_group_IT_number       1

loop_
  _space_group_symop_operation_xyz
  'x, y, z'

loop_
  _atom_site_type_symbol
  _atom_site_label
  _atom_site_symmetry_multiplicity
  _atom_site_fract_x
  _atom_site_fract_y
  _atom_site_fract_z
  _atom_site_occupancy
  Ru  Ru1       1.0  0.50000  0.28700  0.96249  1.0000
  Ru  Ru2       1.0  0.50000  0.78700  0.53751  1.0000
  Ru  Ru3       1.0  0.00000  0.50000  0.50000  1.0000
  Ru  Ru4       1.0  0.00000  0.00000  0.00000  1.0000
  Ru  Ru5       1.0  0.50000  0.71300  0.03751  1.0000
  Ru  Ru6       1.0  0.50000  0.21300  0.46249  1.0000
  Se  Se1       1.0  0.50000  0.63307  0.38638  1.0000
  Se  Se2       1.0  0.50000  0.36693  0.61362  1.0000
  Se  Se3       1.0  0.00000  0.19737  0.84692  1.0000
  Se  Se4       1.0  0.50000  0.86693  0.88638  1.0000
  Se  Se5       1.0  0.00000  0.30263  0.34692  1.0000
  Se  Se6       1.0  0.00000  0.80263  0.15308  1.0000
  Se  Se7       1.0  0.00000  0.69737  0.65308  1.0000
  Se  Se8       1.0  0.00000  0.50000  0.00000  1.0000
  Se  Se9       1.0  0.00000  0.00000  0.50000  1.0000
  Se  Se10      1.0  0.50000  0.13307  0.11362  1.0000
