data_image0
_chemical_formula_structural       Se6Ru2
_chemical_formula_sum              "Se6 Ru2"
_cell_length_a       2.9185
_cell_length_b       8.66528
_cell_length_c       7.94905
_cell_angle_alpha    90
_cell_angle_beta     90
_cell_angle_gamma    90

_space_group_name_H-M_alt    "P 1"
_space_group_IT_number       1

loop_
  _space_group_symop_operation_xyz
  'x, y, z'

loop_
  _atom_site_type_symbol
  _atom_site_label
  _atom_site_symmetry_multiplicity
  _atom_site_fract_x
  _atom_site_fract_y
  _atom_site_fract_z
  _atom_site_occupancy
  Se  Se1       1.0  0.00000  0.33105  0.28207  1.0000
  Se  Se2       1.0  0.00000  0.33105  0.71793  1.0000
  Se  Se3       1.0  0.50000  0.66895  0.21793  1.0000
  Se  Se4       1.0  0.50000  0.66895  0.78207  1.0000
  Se  Se5       1.0  0.00000  0.98217  0.50000  1.0000
  Se  Se6       1.0  0.50000  0.01783  0.00000  1.0000
  Ru  Ru1       1.0  0.00000  0.78909  0.00000  1.0000
  Ru  Ru2       1.0  0.50000  0.21091  0.50000  1.0000
