data_image0
_chemical_formula_structural       Se8Ru4
_chemical_formula_sum              "Se8 Ru4"
_cell_length_a       4.92655
_cell_length_b       7.59251
_cell_length_c       7.1254
_cell_angle_alpha    57.7029
_cell_angle_beta     90
_cell_angle_gamma    90

_space_group_name_H-M_alt    "P 1"
_space_group_IT_number       1

loop_
  _space_group_symop_operation_xyz
  'x, y, z'

loop_
  _atom_site_type_symbol
  _atom_site_label
  _atom_site_symmetry_multiplicity
  _atom_site_fract_x
  _atom_site_fract_y
  _atom_site_fract_z
  _atom_site_occupancy
  Se  Se1       1.0  0.21106  0.06372  0.37306  1.0000
  Se  Se2       1.0  0.71106  0.93628  0.12694  1.0000
  Se  Se3       1.0  0.78894  0.93628  0.62694  1.0000
  Se  Se4       1.0  0.28894  0.06372  0.87306  1.0000
  Se  Se5       1.0  0.78875  0.43624  0.62670  1.0000
  Se  Se6       1.0  0.28875  0.56376  0.87330  1.0000
  Se  Se7       1.0  0.21125  0.56376  0.37330  1.0000
  Se  Se8       1.0  0.71125  0.43624  0.12670  1.0000
  Ru  Ru1       1.0  0.99984  0.24999  0.99974  1.0000
  Ru  Ru2       1.0  0.49984  0.75001  0.50026  1.0000
  Ru  Ru3       1.0  0.00016  0.75001  0.00026  1.0000
  Ru  Ru4       1.0  0.50016  0.24999  0.49974  1.0000
