data_image0
_chemical_formula_structural       Ru8I16
_chemical_formula_sum              "Ru8 I16"
_cell_length_a       12.6952
_cell_length_b       12.2935
_cell_length_c       7.11351
_cell_angle_alpha    90
_cell_angle_beta     90
_cell_angle_gamma    90

_space_group_name_H-M_alt    "P 1"
_space_group_IT_number       1

loop_
  _space_group_symop_operation_xyz
  'x, y, z'

loop_
  _atom_site_type_symbol
  _atom_site_label
  _atom_site_symmetry_multiplicity
  _atom_site_fract_x
  _atom_site_fract_y
  _atom_site_fract_z
  _atom_site_occupancy
  Ru  Ru1       1.0  0.54701  0.94954  0.09562  1.0000
  Ru  Ru2       1.0  0.95299  0.55046  0.59562  1.0000
  Ru  Ru3       1.0  0.95299  0.44954  0.90438  1.0000
  Ru  Ru4       1.0  0.54701  0.05046  0.40438  1.0000
  Ru  Ru5       1.0  0.45299  0.05046  0.90438  1.0000
  Ru  Ru6       1.0  0.04701  0.44954  0.40438  1.0000
  Ru  Ru7       1.0  0.04701  0.55046  0.09562  1.0000
  Ru  Ru8       1.0  0.45299  0.94954  0.59562  1.0000
  I   I1        1.0  0.23116  0.50000  0.25000  1.0000
  I   I2        1.0  0.26884  0.00000  0.75000  1.0000
  I   I3        1.0  0.76884  0.50000  0.75000  1.0000
  I   I4        1.0  0.73116  0.00000  0.25000  1.0000
  I   I5        1.0  0.41971  0.82123  0.28925  1.0000
  I   I6        1.0  0.08029  0.67877  0.78925  1.0000
  I   I7        1.0  0.08029  0.32123  0.71075  1.0000
  I   I8        1.0  0.41971  0.17877  0.21075  1.0000
  I   I9        1.0  0.58029  0.17877  0.71075  1.0000
  I   I10       1.0  0.91971  0.32123  0.21075  1.0000
  I   I11       1.0  0.91971  0.67877  0.28925  1.0000
  I   I12       1.0  0.58029  0.82123  0.78925  1.0000
  I   I13       1.0  0.50000  0.50000  0.00000  1.0000
  I   I14       1.0  0.00000  0.00000  0.50000  1.0000
  I   I15       1.0  0.00000  0.00000  0.00000  1.0000
  I   I16       1.0  0.50000  0.50000  0.50000  1.0000
