data_image0
_chemical_formula_structural       Ru4Se12
_chemical_formula_sum              "Ru4 Se12"
_cell_length_a       7.03672
_cell_length_b       7.03672
_cell_length_c       8.06042
_cell_angle_alpha    90
_cell_angle_beta     90
_cell_angle_gamma    129.118

_space_group_name_H-M_alt    "P 1"
_space_group_IT_number       1

loop_
  _space_group_symop_operation_xyz
  'x, y, z'

loop_
  _atom_site_type_symbol
  _atom_site_label
  _atom_site_symmetry_multiplicity
  _atom_site_fract_x
  _atom_site_fract_y
  _atom_site_fract_z
  _atom_site_occupancy
  Ru  Ru1       1.0  0.66554  0.33446  0.00000  1.0000
  Ru  Ru2       1.0  0.33446  0.66554  0.00000  1.0000
  Ru  Ru3       1.0  0.16554  0.83446  0.50000  1.0000
  Ru  Ru4       1.0  0.83446  0.16554  0.50000  1.0000
  Se  Se1       1.0  0.50247  0.50247  0.17155  1.0000
  Se  Se2       1.0  0.00247  0.00247  0.32845  1.0000
  Se  Se3       1.0  0.99753  0.99753  0.67155  1.0000
  Se  Se4       1.0  0.36388  0.63612  0.50000  1.0000
  Se  Se5       1.0  0.99815  0.49815  0.75000  1.0000
  Se  Se6       1.0  0.86388  0.13612  0.00000  1.0000
  Se  Se7       1.0  0.00185  0.50185  0.25000  1.0000
  Se  Se8       1.0  0.49753  0.49753  0.82845  1.0000
  Se  Se9       1.0  0.63612  0.36388  0.50000  1.0000
  Se  Se10      1.0  0.13612  0.86388  0.00000  1.0000
  Se  Se11      1.0  0.50185  0.00185  0.25000  1.0000
  Se  Se12      1.0  0.49815  0.99815  0.75000  1.0000
