data_image0
_chemical_formula_structural       Sb14Ag20
_chemical_formula_sum              "Sb14 Ag20"
_cell_length_a       9.86929
_cell_length_b       9.86929
_cell_length_c       8.05071
_cell_angle_alpha    92.3228
_cell_angle_beta     92.3228
_cell_angle_gamma    84.2305

_space_group_name_H-M_alt    "P 1"
_space_group_IT_number       1

loop_
  _space_group_symop_operation_xyz
  'x, y, z'

loop_
  _atom_site_type_symbol
  _atom_site_label
  _atom_site_symmetry_multiplicity
  _atom_site_fract_x
  _atom_site_fract_y
  _atom_site_fract_z
  _atom_site_occupancy
  Sb  Sb1       1.0  0.11127  0.56866  0.59552  1.0000
  Sb  Sb2       1.0  0.54214  0.54214  0.67396  1.0000
  Sb  Sb3       1.0  0.81077  0.32518  0.81381  1.0000
  Sb  Sb4       1.0  0.88873  0.43134  0.40448  1.0000
  Sb  Sb5       1.0  0.24344  0.24344  0.94812  1.0000
  Sb  Sb6       1.0  0.67482  0.18923  0.18619  1.0000
  Sb  Sb7       1.0  0.12098  0.12098  0.42097  1.0000
  Sb  Sb8       1.0  0.18923  0.67482  0.18619  1.0000
  Sb  Sb9       1.0  0.43134  0.88873  0.40448  1.0000
  Sb  Sb10      1.0  0.87902  0.87902  0.57903  1.0000
  Sb  Sb11      1.0  0.32518  0.81077  0.81381  1.0000
  Sb  Sb12      1.0  0.45786  0.45786  0.32604  1.0000
  Sb  Sb13      1.0  0.75656  0.75656  0.05188  1.0000
  Sb  Sb14      1.0  0.56866  0.11127  0.59552  1.0000
  Ag  Ag1       1.0  0.20816  0.97534  0.09641  1.0000
  Ag  Ag2       1.0  0.70182  0.47479  0.11540  1.0000
  Ag  Ag3       1.0  0.16562  0.83438  0.50000  1.0000
  Ag  Ag4       1.0  0.83282  0.60967  0.71991  1.0000
  Ag  Ag5       1.0  0.79184  0.02466  0.90359  1.0000
  Ag  Ag6       1.0  0.47479  0.70182  0.11540  1.0000
  Ag  Ag7       1.0  0.39033  0.16718  0.28009  1.0000
  Ag  Ag8       1.0  0.83438  0.16562  0.50000  1.0000
  Ag  Ag9       1.0  0.29818  0.52521  0.88460  1.0000
  Ag  Ag10      1.0  0.02466  0.79184  0.90359  1.0000
  Ag  Ag11      1.0  0.16718  0.39033  0.28009  1.0000
  Ag  Ag12      1.0  0.93599  0.93599  0.22919  1.0000
  Ag  Ag13      1.0  0.00000  0.50000  0.00000  1.0000
  Ag  Ag14      1.0  0.69041  0.69041  0.39351  1.0000
  Ag  Ag15      1.0  0.60967  0.83282  0.71991  1.0000
  Ag  Ag16      1.0  0.97534  0.20816  0.09641  1.0000
  Ag  Ag17      1.0  0.52521  0.29818  0.88460  1.0000
  Ag  Ag18      1.0  0.06401  0.06401  0.77081  1.0000
  Ag  Ag19      1.0  0.50000  0.00000  0.00000  1.0000
  Ag  Ag20      1.0  0.30959  0.30959  0.60649  1.0000
