data_image0
_chemical_formula_structural       Se10Ru6
_chemical_formula_sum              "Se10 Ru6"
_cell_length_a       7.6019
_cell_length_b       7.6019
_cell_length_c       7.6019
_cell_angle_alpha    125.346
_cell_angle_beta     125.346
_cell_angle_gamma    80.9664

_space_group_name_H-M_alt    "P 1"
_space_group_IT_number       1

loop_
  _space_group_symop_operation_xyz
  'x, y, z'

loop_
  _atom_site_type_symbol
  _atom_site_label
  _atom_site_symmetry_multiplicity
  _atom_site_fract_x
  _atom_site_fract_y
  _atom_site_fract_z
  _atom_site_occupancy
  Se  Se1       1.0  0.52769  0.68887  0.50000  1.0000
  Se  Se2       1.0  0.47231  0.31113  0.50000  1.0000
  Se  Se3       1.0  0.50000  0.50000  0.00000  1.0000
  Se  Se4       1.0  0.00000  0.00000  0.00000  1.0000
  Se  Se5       1.0  0.18887  0.02769  0.50000  1.0000
  Se  Se6       1.0  0.02769  0.52769  0.83882  1.0000
  Se  Se7       1.0  0.68887  0.18887  0.16118  1.0000
  Se  Se8       1.0  0.31113  0.81113  0.83882  1.0000
  Se  Se9       1.0  0.97231  0.47231  0.16118  1.0000
  Se  Se10      1.0  0.81113  0.97231  0.50000  1.0000
  Ru  Ru1       1.0  0.86369  0.63631  0.50000  1.0000
  Ru  Ru2       1.0  0.63631  0.13631  0.77263  1.0000
  Ru  Ru3       1.0  0.36369  0.86369  0.22737  1.0000
  Ru  Ru4       1.0  0.13631  0.36369  0.50000  1.0000
  Ru  Ru5       1.0  0.25000  0.25000  0.00000  1.0000
  Ru  Ru6       1.0  0.75000  0.75000  1.00000  1.0000
