data_image0
_chemical_formula_structural       Tl9Rh13
_chemical_formula_sum              "Tl9 Rh13"
_cell_length_a       9.08191
_cell_length_b       9.08191
_cell_length_c       5.59901
_cell_angle_alpha    90
_cell_angle_beta     90
_cell_angle_gamma    120

_space_group_name_H-M_alt    "P 1"
_space_group_IT_number       1

loop_
  _space_group_symop_operation_xyz
  'x, y, z'

loop_
  _atom_site_type_symbol
  _atom_site_label
  _atom_site_symmetry_multiplicity
  _atom_site_fract_x
  _atom_site_fract_y
  _atom_site_fract_z
  _atom_site_occupancy
  Tl  Tl1       1.0  0.00000  0.00000  0.50000  1.0000
  Tl  Tl2       1.0  0.33333  0.66667  0.74008  1.0000
  Tl  Tl3       1.0  0.66667  0.33333  0.25992  1.0000
  Tl  Tl4       1.0  0.19011  0.80989  0.23303  1.0000
  Tl  Tl5       1.0  0.19011  0.38022  0.23303  1.0000
  Tl  Tl6       1.0  0.61978  0.80989  0.23303  1.0000
  Tl  Tl7       1.0  0.38022  0.19011  0.76697  1.0000
  Tl  Tl8       1.0  0.80989  0.61978  0.76697  1.0000
  Tl  Tl9       1.0  0.80989  0.19011  0.76697  1.0000
  Rh  Rh1       1.0  0.00000  0.00000  0.00000  1.0000
  Rh  Rh2       1.0  0.50000  0.00000  0.00000  1.0000
  Rh  Rh3       1.0  1.00000  0.50000  0.00000  1.0000
  Rh  Rh4       1.0  0.50000  0.50000  0.00000  1.0000
  Rh  Rh5       1.0  0.50000  0.00000  0.50000  1.0000
  Rh  Rh6       1.0  1.00000  0.50000  0.50000  1.0000
  Rh  Rh7       1.0  0.50000  0.50000  0.50000  1.0000
  Rh  Rh8       1.0  0.16179  0.83821  0.73283  1.0000
  Rh  Rh9       1.0  0.16179  0.32357  0.73283  1.0000
  Rh  Rh10      1.0  0.67643  0.83821  0.73283  1.0000
  Rh  Rh11      1.0  0.32357  0.16179  0.26717  1.0000
  Rh  Rh12      1.0  0.83821  0.67643  0.26717  1.0000
  Rh  Rh13      1.0  0.83821  0.16179  0.26717  1.0000
