data_image0
_chemical_formula_structural       Ru3F8
_chemical_formula_sum              "Ru3 F8"
_cell_length_a       5.20308
_cell_length_b       5.20308
_cell_length_c       5.20308
_cell_angle_alpha    92.2348
_cell_angle_beta     92.2348
_cell_angle_gamma    92.2348

_space_group_name_H-M_alt    "P 1"
_space_group_IT_number       1

loop_
  _space_group_symop_operation_xyz
  'x, y, z'

loop_
  _atom_site_type_symbol
  _atom_site_label
  _atom_site_symmetry_multiplicity
  _atom_site_fract_x
  _atom_site_fract_y
  _atom_site_fract_z
  _atom_site_occupancy
  Ru  Ru1       1.0  0.00000  0.50000  0.50000  1.0000
  Ru  Ru2       1.0  0.50000  0.00000  0.50000  1.0000
  Ru  Ru3       1.0  0.50000  0.50000  0.00000  1.0000
  F   F1        1.0  0.38888  0.83608  0.15340  1.0000
  F   F2        1.0  0.15340  0.38888  0.83608  1.0000
  F   F3        1.0  0.83608  0.15340  0.38888  1.0000
  F   F4        1.0  0.61112  0.16392  0.84660  1.0000
  F   F5        1.0  0.84660  0.61112  0.16392  1.0000
  F   F6        1.0  0.16392  0.84660  0.61112  1.0000
  F   F7        1.0  0.66532  0.66532  0.66532  1.0000
  F   F8        1.0  0.33468  0.33468  0.33468  1.0000
