data_image0
_chemical_formula_structural       Ru4Au8
_chemical_formula_sum              "Ru4 Au8"
_cell_length_a       7.64953
_cell_length_b       7.64953
_cell_length_c       11.6474
_cell_angle_alpha    55.4593
_cell_angle_beta     55.4593
_cell_angle_gamma    21.5111

_space_group_name_H-M_alt    "P 1"
_space_group_IT_number       1

loop_
  _space_group_symop_operation_xyz
  'x, y, z'

loop_
  _atom_site_type_symbol
  _atom_site_label
  _atom_site_symmetry_multiplicity
  _atom_site_fract_x
  _atom_site_fract_y
  _atom_site_fract_z
  _atom_site_occupancy
  Ru  Ru1       1.0  0.66919  0.66919  0.87417  1.0000
  Ru  Ru2       1.0  0.33081  0.33081  0.12583  1.0000
  Ru  Ru3       1.0  0.44273  0.44273  0.37638  1.0000
  Ru  Ru4       1.0  0.55727  0.55727  0.62362  1.0000
  Au  Au1       1.0  0.99818  0.99818  0.12421  1.0000
  Au  Au2       1.0  0.00182  0.00182  0.87579  1.0000
  Au  Au3       1.0  0.89172  0.89172  0.62101  1.0000
  Au  Au4       1.0  0.10828  0.10828  0.37899  1.0000
  Au  Au5       1.0  0.66537  0.66537  0.12694  1.0000
  Au  Au6       1.0  0.33463  0.33463  0.87306  1.0000
  Au  Au7       1.0  0.21965  0.21965  0.62791  1.0000
  Au  Au8       1.0  0.78035  0.78035  0.37209  1.0000
