data_image0
_chemical_formula_structural       Ru2Hg3
_chemical_formula_sum              "Ru2 Hg3"
_cell_length_a       4.63231
_cell_length_b       4.63231
_cell_length_c       5.62837
_cell_angle_alpha    90
_cell_angle_beta     90
_cell_angle_gamma    120

_space_group_name_H-M_alt    "P 1"
_space_group_IT_number       1

loop_
  _space_group_symop_operation_xyz
  'x, y, z'

loop_
  _atom_site_type_symbol
  _atom_site_label
  _atom_site_symmetry_multiplicity
  _atom_site_fract_x
  _atom_site_fract_y
  _atom_site_fract_z
  _atom_site_occupancy
  Ru  Ru1       1.0  0.66667  0.33333  0.33198  1.0000
  Ru  Ru2       1.0  0.33333  0.66667  0.66802  1.0000
  Hg  Hg1       1.0  0.66667  0.33333  0.80654  1.0000
  Hg  Hg2       1.0  0.33333  0.66667  0.19346  1.0000
  Hg  Hg3       1.0  0.00000  0.00000  0.00000  1.0000
