data_image0
_chemical_formula_structural       RuSe4
_chemical_formula_sum              "Ru1 Se4"
_cell_length_a       6.14127
_cell_length_b       6.14127
_cell_length_c       6.14127
_cell_angle_alpha    94.5348
_cell_angle_beta     94.5348
_cell_angle_gamma    147.338

_space_group_name_H-M_alt    "P 1"
_space_group_IT_number       1

loop_
  _space_group_symop_operation_xyz
  'x, y, z'

loop_
  _atom_site_type_symbol
  _atom_site_label
  _atom_site_symmetry_multiplicity
  _atom_site_fract_x
  _atom_site_fract_y
  _atom_site_fract_z
  _atom_site_occupancy
  Ru  Ru1       1.0  0.00000  0.00000  0.00000  1.0000
  Se  Se1       1.0  0.59012  0.71090  0.30102  1.0000
  Se  Se2       1.0  0.40988  0.28910  0.69898  1.0000
  Se  Se3       1.0  0.28910  0.59012  0.87922  1.0000
  Se  Se4       1.0  0.71090  0.40988  0.12078  1.0000
