data_image0
_chemical_formula_structural       Ru2Se6
_chemical_formula_sum              "Ru2 Se6"
_cell_length_a       4.93042
_cell_length_b       3.74184
_cell_length_c       8.6008
_cell_angle_alpha    90
_cell_angle_beta     90
_cell_angle_gamma    90

_space_group_name_H-M_alt    "P 1"
_space_group_IT_number       1

loop_
  _space_group_symop_operation_xyz
  'x, y, z'

loop_
  _atom_site_type_symbol
  _atom_site_label
  _atom_site_symmetry_multiplicity
  _atom_site_fract_x
  _atom_site_fract_y
  _atom_site_fract_z
  _atom_site_occupancy
  Ru  Ru1       1.0  0.50000  0.50564  0.50000  1.0000
  Ru  Ru2       1.0  0.00000  0.49436  0.00000  1.0000
  Se  Se1       1.0  0.50000  0.01125  0.69420  1.0000
  Se  Se2       1.0  0.50000  0.01125  0.30580  1.0000
  Se  Se3       1.0  0.00000  0.98875  0.80580  1.0000
  Se  Se4       1.0  0.00000  0.98875  0.19420  1.0000
  Se  Se5       1.0  0.00000  0.56617  0.50000  1.0000
  Se  Se6       1.0  0.50000  0.43383  0.00000  1.0000
