data_image0
_chemical_formula_structural       Ru3Hg8
_chemical_formula_sum              "Ru3 Hg8"
_cell_length_a       6.41876
_cell_length_b       6.41876
_cell_length_c       6.41876
_cell_angle_alpha    89.8016
_cell_angle_beta     89.8016
_cell_angle_gamma    89.8016

_space_group_name_H-M_alt    "P 1"
_space_group_IT_number       1

loop_
  _space_group_symop_operation_xyz
  'x, y, z'

loop_
  _atom_site_type_symbol
  _atom_site_label
  _atom_site_symmetry_multiplicity
  _atom_site_fract_x
  _atom_site_fract_y
  _atom_site_fract_z
  _atom_site_occupancy
  Ru  Ru1       1.0  0.50000  0.00000  0.50000  1.0000
  Ru  Ru2       1.0  0.00000  0.50000  0.50000  1.0000
  Ru  Ru3       1.0  0.50000  0.50000  0.00000  1.0000
  Hg  Hg1       1.0  0.74821  0.74769  0.25043  1.0000
  Hg  Hg2       1.0  0.74769  0.25043  0.74821  1.0000
  Hg  Hg3       1.0  0.25043  0.74821  0.74769  1.0000
  Hg  Hg4       1.0  0.74882  0.74882  0.74882  1.0000
  Hg  Hg5       1.0  0.25118  0.25118  0.25118  1.0000
  Hg  Hg6       1.0  0.74957  0.25179  0.25231  1.0000
  Hg  Hg7       1.0  0.25231  0.74957  0.25179  1.0000
  Hg  Hg8       1.0  0.25179  0.25231  0.74957  1.0000
