data_image0
_chemical_formula_structural       Ru6N8
_chemical_formula_sum              "Ru6 N8"
_cell_length_a       6.00666
_cell_length_b       6.00666
_cell_length_c       6.00666
_cell_angle_alpha    60
_cell_angle_beta     60
_cell_angle_gamma    60

_space_group_name_H-M_alt    "P 1"
_space_group_IT_number       1

loop_
  _space_group_symop_operation_xyz
  'x, y, z'

loop_
  _atom_site_type_symbol
  _atom_site_label
  _atom_site_symmetry_multiplicity
  _atom_site_fract_x
  _atom_site_fract_y
  _atom_site_fract_z
  _atom_site_occupancy
  Ru  Ru1       1.0  0.50000  0.50000  0.50000  1.0000
  Ru  Ru2       1.0  0.12500  0.12500  0.62500  1.0000
  Ru  Ru3       1.0  0.12500  0.12500  0.12500  1.0000
  Ru  Ru4       1.0  0.12500  0.62500  0.12500  1.0000
  Ru  Ru5       1.0  0.75000  0.75000  0.75000  1.0000
  Ru  Ru6       1.0  0.62500  0.12500  0.12500  1.0000
  N   N1        1.0  0.87848  0.87848  0.87848  1.0000
  N   N2        1.0  0.87848  0.87848  0.36456  1.0000
  N   N3        1.0  0.37152  0.37152  0.37152  1.0000
  N   N4        1.0  0.37152  0.37152  0.88544  1.0000
  N   N5        1.0  0.87848  0.36456  0.87848  1.0000
  N   N6        1.0  0.37152  0.88544  0.37152  1.0000
  N   N7        1.0  0.88544  0.37152  0.37152  1.0000
  N   N8        1.0  0.36456  0.87848  0.87848  1.0000
