data_image0
_chemical_formula_structural       Ru2Br6
_chemical_formula_sum              "Ru2 Br6"
_cell_length_a       10.3153
_cell_length_b       10.3153
_cell_length_c       3.43635
_cell_angle_alpha    90
_cell_angle_beta     90
_cell_angle_gamma    120

_space_group_name_H-M_alt    "P 1"
_space_group_IT_number       1

loop_
  _space_group_symop_operation_xyz
  'x, y, z'

loop_
  _atom_site_type_symbol
  _atom_site_label
  _atom_site_symmetry_multiplicity
  _atom_site_fract_x
  _atom_site_fract_y
  _atom_site_fract_z
  _atom_site_occupancy
  Ru  Ru1       1.0  0.33333  0.66667  0.75000  1.0000
  Ru  Ru2       1.0  0.66667  0.33333  0.25000  1.0000
  Br  Br1       1.0  0.22779  0.45558  0.25000  1.0000
  Br  Br2       1.0  0.54442  0.77221  0.25000  1.0000
  Br  Br3       1.0  0.22779  0.77221  0.25000  1.0000
  Br  Br4       1.0  0.77221  0.54442  0.75000  1.0000
  Br  Br5       1.0  0.45558  0.22779  0.75000  1.0000
  Br  Br6       1.0  0.77221  0.22779  0.75000  1.0000
