data_image0
_chemical_formula_structural       Ru8Se8
_chemical_formula_sum              "Ru8 Se8"
_cell_length_a       6.66892
_cell_length_b       6.66892
_cell_length_c       6.97553
_cell_angle_alpha    90
_cell_angle_beta     90
_cell_angle_gamma    90

_space_group_name_H-M_alt    "P 1"
_space_group_IT_number       1

loop_
  _space_group_symop_operation_xyz
  'x, y, z'

loop_
  _atom_site_type_symbol
  _atom_site_label
  _atom_site_symmetry_multiplicity
  _atom_site_fract_x
  _atom_site_fract_y
  _atom_site_fract_z
  _atom_site_occupancy
  Ru  Ru1       1.0  0.53385  0.67283  0.00000  1.0000
  Ru  Ru2       1.0  0.32717  0.53385  0.50000  1.0000
  Ru  Ru3       1.0  0.67283  0.46615  0.50000  1.0000
  Ru  Ru4       1.0  0.46615  0.32717  0.00000  1.0000
  Ru  Ru5       1.0  0.50000  0.00000  0.50000  1.0000
  Ru  Ru6       1.0  0.00000  0.50000  0.00000  1.0000
  Ru  Ru7       1.0  0.00000  0.00000  0.75000  1.0000
  Ru  Ru8       1.0  0.00000  0.00000  0.25000  1.0000
  Se  Se1       1.0  0.19115  0.31394  0.75563  1.0000
  Se  Se2       1.0  0.68606  0.19115  0.25563  1.0000
  Se  Se3       1.0  0.31394  0.80885  0.25563  1.0000
  Se  Se4       1.0  0.80885  0.68606  0.75563  1.0000
  Se  Se5       1.0  0.80885  0.68606  0.24437  1.0000
  Se  Se6       1.0  0.31394  0.80885  0.74437  1.0000
  Se  Se7       1.0  0.68606  0.19115  0.74437  1.0000
  Se  Se8       1.0  0.19115  0.31394  0.24437  1.0000
