data_image0
_chemical_formula_structural       Ru6Hg8
_chemical_formula_sum              "Ru6 Hg8"
_cell_length_a       7.98183
_cell_length_b       7.98183
_cell_length_c       7.98183
_cell_angle_alpha    60
_cell_angle_beta     60
_cell_angle_gamma    60

_space_group_name_H-M_alt    "P 1"
_space_group_IT_number       1

loop_
  _space_group_symop_operation_xyz
  'x, y, z'

loop_
  _atom_site_type_symbol
  _atom_site_label
  _atom_site_symmetry_multiplicity
  _atom_site_fract_x
  _atom_site_fract_y
  _atom_site_fract_z
  _atom_site_occupancy
  Ru  Ru1       1.0  0.50000  0.50000  0.50000  1.0000
  Ru  Ru2       1.0  0.12500  0.12500  0.62500  1.0000
  Ru  Ru3       1.0  0.12500  0.12500  0.12500  1.0000
  Ru  Ru4       1.0  0.12500  0.62500  0.12500  1.0000
  Ru  Ru5       1.0  0.75000  0.75000  0.75000  1.0000
  Ru  Ru6       1.0  0.62500  0.12500  0.12500  1.0000
  Hg  Hg1       1.0  0.88309  0.88309  0.88309  1.0000
  Hg  Hg2       1.0  0.88309  0.88309  0.35072  1.0000
  Hg  Hg3       1.0  0.36691  0.36691  0.36691  1.0000
  Hg  Hg4       1.0  0.36691  0.36691  0.89928  1.0000
  Hg  Hg5       1.0  0.88309  0.35072  0.88309  1.0000
  Hg  Hg6       1.0  0.36691  0.89928  0.36691  1.0000
  Hg  Hg7       1.0  0.89928  0.36691  0.36691  1.0000
  Hg  Hg8       1.0  0.35072  0.88309  0.88309  1.0000
