data_image0
_chemical_formula_structural       Ru8Au8
_chemical_formula_sum              "Ru8 Au8"
_cell_length_a       6.42412
_cell_length_b       6.42412
_cell_length_c       7.61667
_cell_angle_alpha    90
_cell_angle_beta     90
_cell_angle_gamma    90

_space_group_name_H-M_alt    "P 1"
_space_group_IT_number       1

loop_
  _space_group_symop_operation_xyz
  'x, y, z'

loop_
  _atom_site_type_symbol
  _atom_site_label
  _atom_site_symmetry_multiplicity
  _atom_site_fract_x
  _atom_site_fract_y
  _atom_site_fract_z
  _atom_site_occupancy
  Ru  Ru1       1.0  0.64948  0.60431  0.00000  1.0000
  Ru  Ru2       1.0  0.39569  0.64948  0.50000  1.0000
  Ru  Ru3       1.0  0.60431  0.35052  0.50000  1.0000
  Ru  Ru4       1.0  0.35052  0.39569  0.00000  1.0000
  Ru  Ru5       1.0  0.50000  0.00000  0.50000  1.0000
  Ru  Ru6       1.0  0.00000  0.50000  0.00000  1.0000
  Ru  Ru7       1.0  0.00000  0.00000  0.75000  1.0000
  Ru  Ru8       1.0  0.00000  0.00000  0.25000  1.0000
  Au  Au1       1.0  0.17816  0.35812  0.68079  1.0000
  Au  Au2       1.0  0.64188  0.17816  0.18079  1.0000
  Au  Au3       1.0  0.35812  0.82184  0.18079  1.0000
  Au  Au4       1.0  0.82184  0.64188  0.68079  1.0000
  Au  Au5       1.0  0.82184  0.64188  0.31921  1.0000
  Au  Au6       1.0  0.35812  0.82184  0.81921  1.0000
  Au  Au7       1.0  0.64188  0.17816  0.81921  1.0000
  Au  Au8       1.0  0.17816  0.35812  0.31921  1.0000
