data_image0
_chemical_formula_structural       RuSe4
_chemical_formula_sum              "Ru1 Se4"
_cell_length_a       6.10005
_cell_length_b       6.10005
_cell_length_c       6.10005
_cell_angle_alpha    94.6134
_cell_angle_beta     94.6134
_cell_angle_gamma    147.049

_space_group_name_H-M_alt    "P 1"
_space_group_IT_number       1

loop_
  _space_group_symop_operation_xyz
  'x, y, z'

loop_
  _atom_site_type_symbol
  _atom_site_label
  _atom_site_symmetry_multiplicity
  _atom_site_fract_x
  _atom_site_fract_y
  _atom_site_fract_z
  _atom_site_occupancy
  Ru  Ru1       1.0  0.00000  0.00000  0.00000  1.0000
  Se  Se1       1.0  0.71214  0.59189  0.30403  1.0000
  Se  Se2       1.0  0.40811  0.71214  0.12025  1.0000
  Se  Se3       1.0  0.59189  0.28786  0.87975  1.0000
  Se  Se4       1.0  0.28786  0.40811  0.69597  1.0000
