data_image0
_chemical_formula_structural       Ru4Ag8
_chemical_formula_sum              "Ru4 Ag8"
_cell_length_a       7.83173
_cell_length_b       7.83173
_cell_length_c       11.8874
_cell_angle_alpha    54.4935
_cell_angle_beta     54.4935
_cell_angle_gamma    19.7818

_space_group_name_H-M_alt    "P 1"
_space_group_IT_number       1

loop_
  _space_group_symop_operation_xyz
  'x, y, z'

loop_
  _atom_site_type_symbol
  _atom_site_label
  _atom_site_symmetry_multiplicity
  _atom_site_fract_x
  _atom_site_fract_y
  _atom_site_fract_z
  _atom_site_occupancy
  Ru  Ru1       1.0  0.67046  0.67046  0.87467  1.0000
  Ru  Ru2       1.0  0.32954  0.32954  0.12533  1.0000
  Ru  Ru3       1.0  0.44250  0.44250  0.37552  1.0000
  Ru  Ru4       1.0  0.55750  0.55750  0.62448  1.0000
  Ag  Ag1       1.0  0.99672  0.99672  0.12447  1.0000
  Ag  Ag2       1.0  0.00328  0.00328  0.87553  1.0000
  Ag  Ag3       1.0  0.89195  0.89195  0.62238  1.0000
  Ag  Ag4       1.0  0.10805  0.10805  0.37762  1.0000
  Ag  Ag5       1.0  0.66381  0.66381  0.12577  1.0000
  Ag  Ag6       1.0  0.33619  0.33619  0.87423  1.0000
  Ag  Ag7       1.0  0.22132  0.22132  0.62721  1.0000
  Ag  Ag8       1.0  0.77868  0.77868  0.37279  1.0000
