data_image0
_chemical_formula_structural       Se4Ru2
_chemical_formula_sum              "Se4 Ru2"
_cell_length_a       5.19596
_cell_length_b       5.19596
_cell_length_c       5.19596
_cell_angle_alpha    108.31
_cell_angle_beta     108.31
_cell_angle_gamma    111.819

_space_group_name_H-M_alt    "P 1"
_space_group_IT_number       1

loop_
  _space_group_symop_operation_xyz
  'x, y, z'

loop_
  _atom_site_type_symbol
  _atom_site_label
  _atom_site_symmetry_multiplicity
  _atom_site_fract_x
  _atom_site_fract_y
  _atom_site_fract_z
  _atom_site_occupancy
  Se  Se1       1.0  0.32596  0.82596  0.15193  1.0000
  Se  Se2       1.0  0.17404  0.32596  0.50000  1.0000
  Se  Se3       1.0  0.82596  0.67404  0.50000  1.0000
  Se  Se4       1.0  0.67404  0.17404  0.84807  1.0000
  Ru  Ru1       1.0  0.75000  0.75000  0.00000  1.0000
  Ru  Ru2       1.0  0.25000  0.25000  0.00000  1.0000
