data_image0
_chemical_formula_structural       Se2Ru6
_chemical_formula_sum              "Se2 Ru6"
_cell_length_a       8.3413
_cell_length_b       8.3413
_cell_length_c       8.3413
_cell_angle_alpha    153.273
_cell_angle_beta     153.273
_cell_angle_gamma    38.1576

_space_group_name_H-M_alt    "P 1"
_space_group_IT_number       1

loop_
  _space_group_symop_operation_xyz
  'x, y, z'

loop_
  _atom_site_type_symbol
  _atom_site_label
  _atom_site_symmetry_multiplicity
  _atom_site_fract_x
  _atom_site_fract_y
  _atom_site_fract_z
  _atom_site_occupancy
  Se  Se1       1.0  0.88794  0.88794  0.00000  1.0000
  Se  Se2       1.0  0.11206  0.11206  0.00000  1.0000
  Ru  Ru1       1.0  0.00000  0.50000  0.50000  1.0000
  Ru  Ru2       1.0  0.50000  0.00000  0.50000  1.0000
  Ru  Ru3       1.0  0.75000  0.25000  0.50000  1.0000
  Ru  Ru4       1.0  0.25000  0.75000  0.50000  1.0000
  Ru  Ru5       1.0  0.63222  0.63222  0.00000  1.0000
  Ru  Ru6       1.0  0.36778  0.36778  0.00000  1.0000
