data_image0
_chemical_formula_structural       Ru4Se18
_chemical_formula_sum              "Ru4 Se18"
_cell_length_a       8.76683
_cell_length_b       8.00655
_cell_length_c       8.72636
_cell_angle_alpha    93.4777
_cell_angle_beta     98.4268
_cell_angle_gamma    95.9182

_space_group_name_H-M_alt    "P 1"
_space_group_IT_number       1

loop_
  _space_group_symop_operation_xyz
  'x, y, z'

loop_
  _atom_site_type_symbol
  _atom_site_label
  _atom_site_symmetry_multiplicity
  _atom_site_fract_x
  _atom_site_fract_y
  _atom_site_fract_z
  _atom_site_occupancy
  Ru  Ru1       1.0  0.08372  0.09474  0.20657  1.0000
  Ru  Ru2       1.0  0.91628  0.90526  0.79343  1.0000
  Ru  Ru3       1.0  0.42064  0.28320  0.40328  1.0000
  Ru  Ru4       1.0  0.57936  0.71680  0.59672  1.0000
  Se  Se1       1.0  0.94458  0.24766  0.39236  1.0000
  Se  Se2       1.0  0.05542  0.75234  0.60764  1.0000
  Se  Se3       1.0  0.42100  0.44974  0.65899  1.0000
  Se  Se4       1.0  0.57900  0.55026  0.34101  1.0000
  Se  Se5       1.0  0.65918  0.82411  0.88967  1.0000
  Se  Se6       1.0  0.34082  0.17589  0.11033  1.0000
  Se  Se7       1.0  0.89469  0.84517  0.22514  1.0000
  Se  Se8       1.0  0.10531  0.15483  0.77486  1.0000
  Se  Se9       1.0  0.24767  0.03308  0.45893  1.0000
  Se  Se10      1.0  0.75233  0.96692  0.54107  1.0000
  Se  Se11      1.0  0.60942  0.23827  0.63036  1.0000
  Se  Se12      1.0  0.39058  0.76173  0.36964  1.0000
  Se  Se13      1.0  0.06379  0.81926  0.03970  1.0000
  Se  Se14      1.0  0.93621  0.18074  0.96030  1.0000
  Se  Se15      1.0  0.84273  0.59584  0.69010  1.0000
  Se  Se16      1.0  0.15727  0.40416  0.30990  1.0000
  Se  Se17      1.0  0.55944  0.08032  0.26810  1.0000
  Se  Se18      1.0  0.44056  0.91968  0.73190  1.0000
