data_image0
_chemical_formula_structural       Sb4Ag4
_chemical_formula_sum              "Sb4 Ag4"
_cell_length_a       5.71783
_cell_length_b       5.71783
_cell_length_c       5.71783
_cell_angle_alpha    90
_cell_angle_beta     90
_cell_angle_gamma    90

_space_group_name_H-M_alt    "P 1"
_space_group_IT_number       1

loop_
  _space_group_symop_operation_xyz
  'x, y, z'

loop_
  _atom_site_type_symbol
  _atom_site_label
  _atom_site_symmetry_multiplicity
  _atom_site_fract_x
  _atom_site_fract_y
  _atom_site_fract_z
  _atom_site_occupancy
  Sb  Sb1       1.0  0.85029  0.64971  0.35029  1.0000
  Sb  Sb2       1.0  0.64971  0.35029  0.85029  1.0000
  Sb  Sb3       1.0  0.35029  0.85029  0.64971  1.0000
  Sb  Sb4       1.0  0.14971  0.14971  0.14971  1.0000
  Ag  Ag1       1.0  0.16087  0.33913  0.66087  1.0000
  Ag  Ag2       1.0  0.33913  0.66087  0.16087  1.0000
  Ag  Ag3       1.0  0.66087  0.16087  0.33913  1.0000
  Ag  Ag4       1.0  0.83913  0.83913  0.83913  1.0000
