data_image0
_chemical_formula_structural       Sb4Au4
_chemical_formula_sum              "Sb4 Au4"
_cell_length_a       5.76172
_cell_length_b       5.76172
_cell_length_c       5.76172
_cell_angle_alpha    90
_cell_angle_beta     90
_cell_angle_gamma    90

_space_group_name_H-M_alt    "P 1"
_space_group_IT_number       1

loop_
  _space_group_symop_operation_xyz
  'x, y, z'

loop_
  _atom_site_type_symbol
  _atom_site_label
  _atom_site_symmetry_multiplicity
  _atom_site_fract_x
  _atom_site_fract_y
  _atom_site_fract_z
  _atom_site_occupancy
  Sb  Sb1       1.0  0.74886  0.75114  0.24886  1.0000
  Sb  Sb2       1.0  0.75114  0.24886  0.74886  1.0000
  Sb  Sb3       1.0  0.24886  0.74886  0.75114  1.0000
  Sb  Sb4       1.0  0.25114  0.25114  0.25114  1.0000
  Au  Au1       1.0  0.25094  0.24906  0.75094  1.0000
  Au  Au2       1.0  0.24906  0.75094  0.25094  1.0000
  Au  Au3       1.0  0.75094  0.25094  0.24906  1.0000
  Au  Au4       1.0  0.74906  0.74906  0.74906  1.0000
