data_image0
_chemical_formula_structural       Sb3Au4
_chemical_formula_sum              "Sb3 Au4"
_cell_length_a       6.99564
_cell_length_b       6.99564
_cell_length_c       7.27152
_cell_angle_alpha    56.7082
_cell_angle_beta     56.7082
_cell_angle_gamma    36.1707

_space_group_name_H-M_alt    "P 1"
_space_group_IT_number       1

loop_
  _space_group_symop_operation_xyz
  'x, y, z'

loop_
  _atom_site_type_symbol
  _atom_site_label
  _atom_site_symmetry_multiplicity
  _atom_site_fract_x
  _atom_site_fract_y
  _atom_site_fract_z
  _atom_site_occupancy
  Sb  Sb1       1.0  0.13619  0.13619  0.83279  1.0000
  Sb  Sb2       1.0  0.86381  0.86381  0.16721  1.0000
  Sb  Sb3       1.0  0.50000  0.50000  0.50000  1.0000
  Au  Au1       1.0  0.83503  0.83503  0.56847  1.0000
  Au  Au2       1.0  0.16497  0.16497  0.43153  1.0000
  Au  Au3       1.0  0.33424  0.33424  0.96291  1.0000
  Au  Au4       1.0  0.66576  0.66576  0.03709  1.0000
