data_image0
_chemical_formula_structural       Sb3Ag4
_chemical_formula_sum              "Sb3 Ag4"
_cell_length_a       5.37309
_cell_length_b       5.37309
_cell_length_c       8.63517
_cell_angle_alpha    65.0406
_cell_angle_beta     65.0406
_cell_angle_gamma    49.4016

_space_group_name_H-M_alt    "P 1"
_space_group_IT_number       1

loop_
  _space_group_symop_operation_xyz
  'x, y, z'

loop_
  _atom_site_type_symbol
  _atom_site_label
  _atom_site_symmetry_multiplicity
  _atom_site_fract_x
  _atom_site_fract_y
  _atom_site_fract_z
  _atom_site_occupancy
  Sb  Sb1       1.0  0.00000  0.00000  0.00000  1.0000
  Sb  Sb2       1.0  0.31674  0.31674  0.61535  1.0000
  Sb  Sb3       1.0  0.68326  0.68326  0.38465  1.0000
  Ag  Ag1       1.0  0.99372  0.99372  0.66605  1.0000
  Ag  Ag2       1.0  0.00628  0.00628  0.33395  1.0000
  Ag  Ag3       1.0  0.64365  0.64365  0.07394  1.0000
  Ag  Ag4       1.0  0.35635  0.35635  0.92606  1.0000
