data_image0
_chemical_formula_structural       Au9Sb13
_chemical_formula_sum              "Au9 Sb13"
_cell_length_a       8.72731
_cell_length_b       8.72731
_cell_length_c       8.14672
_cell_angle_alpha    90
_cell_angle_beta     90
_cell_angle_gamma    120

_space_group_name_H-M_alt    "P 1"
_space_group_IT_number       1

loop_
  _space_group_symop_operation_xyz
  'x, y, z'

loop_
  _atom_site_type_symbol
  _atom_site_label
  _atom_site_symmetry_multiplicity
  _atom_site_fract_x
  _atom_site_fract_y
  _atom_site_fract_z
  _atom_site_occupancy
  Au  Au1       1.0  0.00000  0.00000  0.50000  1.0000
  Au  Au2       1.0  0.33333  0.66667  0.78709  1.0000
  Au  Au3       1.0  0.66667  0.33333  0.21291  1.0000
  Au  Au4       1.0  0.22196  0.77804  0.24667  1.0000
  Au  Au5       1.0  0.22196  0.44391  0.24667  1.0000
  Au  Au6       1.0  0.55609  0.77804  0.24667  1.0000
  Au  Au7       1.0  0.44391  0.22196  0.75333  1.0000
  Au  Au8       1.0  0.77804  0.55609  0.75333  1.0000
  Au  Au9       1.0  0.77804  0.22196  0.75333  1.0000
  Sb  Sb1       1.0  0.00000  0.00000  0.00000  1.0000
  Sb  Sb2       1.0  0.50000  0.00000  0.00000  1.0000
  Sb  Sb3       1.0  1.00000  0.50000  0.00000  1.0000
  Sb  Sb4       1.0  0.50000  0.50000  0.00000  1.0000
  Sb  Sb5       1.0  0.50000  0.00000  0.50000  1.0000
  Sb  Sb6       1.0  1.00000  0.50000  0.50000  1.0000
  Sb  Sb7       1.0  0.50000  0.50000  0.50000  1.0000
  Sb  Sb8       1.0  0.14642  0.85358  0.73230  1.0000
  Sb  Sb9       1.0  0.14642  0.29284  0.73230  1.0000
  Sb  Sb10      1.0  0.70716  0.85358  0.73230  1.0000
  Sb  Sb11      1.0  0.29284  0.14642  0.26770  1.0000
  Sb  Sb12      1.0  0.85358  0.70716  0.26770  1.0000
  Sb  Sb13      1.0  0.85358  0.14642  0.26770  1.0000
