data_image0
_chemical_formula_structural       Sb4Ag12
_chemical_formula_sum              "Sb4 Ag12"
_cell_length_a       9.15084
_cell_length_b       9.15084
_cell_length_c       6.0629
_cell_angle_alpha    90
_cell_angle_beta     90
_cell_angle_gamma    141.019

_space_group_name_H-M_alt    "P 1"
_space_group_IT_number       1

loop_
  _space_group_symop_operation_xyz
  'x, y, z'

loop_
  _atom_site_type_symbol
  _atom_site_label
  _atom_site_symmetry_multiplicity
  _atom_site_fract_x
  _atom_site_fract_y
  _atom_site_fract_z
  _atom_site_occupancy
  Sb  Sb1       1.0  0.62735  0.37265  0.00000  1.0000
  Sb  Sb2       1.0  0.37265  0.62735  0.00000  1.0000
  Sb  Sb3       1.0  0.12735  0.87265  0.50000  1.0000
  Sb  Sb4       1.0  0.87265  0.12735  0.50000  1.0000
  Ag  Ag1       1.0  0.74790  0.74790  0.24769  1.0000
  Ag  Ag2       1.0  0.24790  0.24790  0.25231  1.0000
  Ag  Ag3       1.0  0.75210  0.75210  0.74769  1.0000
  Ag  Ag4       1.0  0.37781  0.62219  0.50000  1.0000
  Ag  Ag5       1.0  0.99865  0.49865  0.75000  1.0000
  Ag  Ag6       1.0  0.87781  0.12219  0.00000  1.0000
  Ag  Ag7       1.0  0.00135  0.50135  0.25000  1.0000
  Ag  Ag8       1.0  0.25210  0.25210  0.75231  1.0000
  Ag  Ag9       1.0  0.62219  0.37781  0.50000  1.0000
  Ag  Ag10      1.0  0.12219  0.87781  0.00000  1.0000
  Ag  Ag11      1.0  0.50135  0.00135  0.25000  1.0000
  Ag  Ag12      1.0  0.49865  0.99865  0.75000  1.0000
