data_image0
_chemical_formula_structural       Au4Sb2
_chemical_formula_sum              "Au4 Sb2"
_cell_length_a       5.81726
_cell_length_b       5.81726
_cell_length_c       5.81726
_cell_angle_alpha    122.137
_cell_angle_beta     122.137
_cell_angle_gamma    86.3369

_space_group_name_H-M_alt    "P 1"
_space_group_IT_number       1

loop_
  _space_group_symop_operation_xyz
  'x, y, z'

loop_
  _atom_site_type_symbol
  _atom_site_label
  _atom_site_symmetry_multiplicity
  _atom_site_fract_x
  _atom_site_fract_y
  _atom_site_fract_z
  _atom_site_occupancy
  Au  Au1       1.0  0.32313  0.82313  0.14626  1.0000
  Au  Au2       1.0  0.17687  0.32313  0.50000  1.0000
  Au  Au3       1.0  0.82313  0.67687  0.50000  1.0000
  Au  Au4       1.0  0.67687  0.17687  0.85374  1.0000
  Sb  Sb1       1.0  0.75000  0.75000  0.00000  1.0000
  Sb  Sb2       1.0  0.25000  0.25000  0.00000  1.0000
