data_image0
_chemical_formula_structural       Sb2Au4
_chemical_formula_sum              "Sb2 Au4"
_cell_length_a       5.82477
_cell_length_b       5.82477
_cell_length_c       5.82477
_cell_angle_alpha    122.343
_cell_angle_beta     122.343
_cell_angle_gamma    85.9876

_space_group_name_H-M_alt    "P 1"
_space_group_IT_number       1

loop_
  _space_group_symop_operation_xyz
  'x, y, z'

loop_
  _atom_site_type_symbol
  _atom_site_label
  _atom_site_symmetry_multiplicity
  _atom_site_fract_x
  _atom_site_fract_y
  _atom_site_fract_z
  _atom_site_occupancy
  Sb  Sb1       1.0  0.25000  0.25000  0.00000  1.0000
  Sb  Sb2       1.0  0.75000  0.75000  0.00000  1.0000
  Au  Au1       1.0  0.67760  0.17760  0.85520  1.0000
  Au  Au2       1.0  0.32240  0.82240  0.14480  1.0000
  Au  Au3       1.0  0.82240  0.67760  0.50000  1.0000
  Au  Au4       1.0  0.17760  0.32240  0.50000  1.0000
