data_image0
_chemical_formula_structural       Ag9Sb13
_chemical_formula_sum              "Ag9 Sb13"
_cell_length_a       8.8627
_cell_length_b       8.8627
_cell_length_c       7.99074
_cell_angle_alpha    90
_cell_angle_beta     90
_cell_angle_gamma    120

_space_group_name_H-M_alt    "P 1"
_space_group_IT_number       1

loop_
  _space_group_symop_operation_xyz
  'x, y, z'

loop_
  _atom_site_type_symbol
  _atom_site_label
  _atom_site_symmetry_multiplicity
  _atom_site_fract_x
  _atom_site_fract_y
  _atom_site_fract_z
  _atom_site_occupancy
  Ag  Ag1       1.0  0.00000  0.00000  0.50000  1.0000
  Ag  Ag2       1.0  0.33333  0.66667  0.77172  1.0000
  Ag  Ag3       1.0  0.66667  0.33333  0.22828  1.0000
  Ag  Ag4       1.0  0.22442  0.77558  0.24772  1.0000
  Ag  Ag5       1.0  0.22442  0.44885  0.24772  1.0000
  Ag  Ag6       1.0  0.55115  0.77558  0.24772  1.0000
  Ag  Ag7       1.0  0.44885  0.22442  0.75228  1.0000
  Ag  Ag8       1.0  0.77558  0.55115  0.75228  1.0000
  Ag  Ag9       1.0  0.77558  0.22442  0.75228  1.0000
  Sb  Sb1       1.0  0.00000  0.00000  0.00000  1.0000
  Sb  Sb2       1.0  0.50000  0.00000  0.00000  1.0000
  Sb  Sb3       1.0  1.00000  0.50000  0.00000  1.0000
  Sb  Sb4       1.0  0.50000  0.50000  0.00000  1.0000
  Sb  Sb5       1.0  0.50000  0.00000  0.50000  1.0000
  Sb  Sb6       1.0  0.00000  0.50000  0.50000  1.0000
  Sb  Sb7       1.0  0.50000  0.50000  0.50000  1.0000
  Sb  Sb8       1.0  0.14867  0.85133  0.73699  1.0000
  Sb  Sb9       1.0  0.14867  0.29734  0.73699  1.0000
  Sb  Sb10      1.0  0.70266  0.85133  0.73699  1.0000
  Sb  Sb11      1.0  0.29734  0.14867  0.26301  1.0000
  Sb  Sb12      1.0  0.85133  0.70266  0.26301  1.0000
  Sb  Sb13      1.0  0.85133  0.14867  0.26301  1.0000
