data_image0
_chemical_formula_structural       SbAu4
_chemical_formula_sum              "Sb1 Au4"
_cell_length_a       5.25515
_cell_length_b       5.25515
_cell_length_c       5.25515
_cell_angle_alpha    99.3256
_cell_angle_beta     99.3256
_cell_angle_gamma    132.525

_space_group_name_H-M_alt    "P 1"
_space_group_IT_number       1

loop_
  _space_group_symop_operation_xyz
  'x, y, z'

loop_
  _atom_site_type_symbol
  _atom_site_label
  _atom_site_symmetry_multiplicity
  _atom_site_fract_x
  _atom_site_fract_y
  _atom_site_fract_z
  _atom_site_occupancy
  Sb  Sb1       1.0  0.00000  0.00000  0.00000  1.0000
  Au  Au1       1.0  0.60040  0.80425  0.40465  1.0000
  Au  Au2       1.0  0.39960  0.19575  0.59535  1.0000
  Au  Au3       1.0  0.19575  0.60040  0.79615  1.0000
  Au  Au4       1.0  0.80425  0.39960  0.20385  1.0000
