data_image0
_chemical_formula_structural       Sb10Ag6
_chemical_formula_sum              "Sb10 Ag6"
_cell_length_a       8.61444
_cell_length_b       8.61444
_cell_length_c       8.61444
_cell_angle_alpha    96.8743
_cell_angle_beta     96.8743
_cell_angle_gamma    139.519

_space_group_name_H-M_alt    "P 1"
_space_group_IT_number       1

loop_
  _space_group_symop_operation_xyz
  'x, y, z'

loop_
  _atom_site_type_symbol
  _atom_site_label
  _atom_site_symmetry_multiplicity
  _atom_site_fract_x
  _atom_site_fract_y
  _atom_site_fract_z
  _atom_site_occupancy
  Sb  Sb1       1.0  0.57847  0.27856  0.85703  1.0000
  Sb  Sb2       1.0  0.42153  0.72144  0.14297  1.0000
  Sb  Sb3       1.0  0.72144  0.57847  0.29992  1.0000
  Sb  Sb4       1.0  0.27856  0.42153  0.70008  1.0000
  Sb  Sb5       1.0  0.92153  0.77856  0.70008  1.0000
  Sb  Sb6       1.0  0.22144  0.92153  0.14297  1.0000
  Sb  Sb7       1.0  0.25000  0.75000  0.50000  1.0000
  Sb  Sb8       1.0  0.75000  0.25000  0.50000  1.0000
  Sb  Sb9       1.0  0.07847  0.22144  0.29992  1.0000
  Sb  Sb10      1.0  0.77856  0.07847  0.85703  1.0000
  Ag  Ag1       1.0  0.83630  0.33630  0.17260  1.0000
  Ag  Ag2       1.0  0.66370  0.83630  0.50000  1.0000
  Ag  Ag3       1.0  0.33630  0.16370  0.50000  1.0000
  Ag  Ag4       1.0  0.16370  0.66370  0.82740  1.0000
  Ag  Ag5       1.0  0.75000  0.75000  0.00000  1.0000
  Ag  Ag6       1.0  0.25000  0.25000  0.00000  1.0000
