data_image0
_chemical_formula_structural       Sb12Au16
_chemical_formula_sum              "Sb12 Au16"
_cell_length_a       13.0614
_cell_length_b       13.0614
_cell_length_c       5.65558
_cell_angle_alpha    90
_cell_angle_beta     90
_cell_angle_gamma    120

_space_group_name_H-M_alt    "P 1"
_space_group_IT_number       1

loop_
  _space_group_symop_operation_xyz
  'x, y, z'

loop_
  _atom_site_type_symbol
  _atom_site_label
  _atom_site_symmetry_multiplicity
  _atom_site_fract_x
  _atom_site_fract_y
  _atom_site_fract_z
  _atom_site_occupancy
  Sb  Sb1       1.0  0.54663  0.09557  0.64025  1.0000
  Sb  Sb2       1.0  0.54895  0.45337  0.64025  1.0000
  Sb  Sb3       1.0  0.90443  0.45105  0.64025  1.0000
  Sb  Sb4       1.0  0.45337  0.54895  0.14025  1.0000
  Sb  Sb5       1.0  0.45105  0.90443  0.14025  1.0000
  Sb  Sb6       1.0  0.09557  0.54663  0.14025  1.0000
  Sb  Sb7       1.0  0.11394  0.22545  0.14104  1.0000
  Sb  Sb8       1.0  0.11151  0.88606  0.14104  1.0000
  Sb  Sb9       1.0  0.77455  0.88849  0.14104  1.0000
  Sb  Sb10      1.0  0.88606  0.11151  0.64104  1.0000
  Sb  Sb11      1.0  0.88849  0.77455  0.64104  1.0000
  Sb  Sb12      1.0  0.22545  0.11394  0.64104  1.0000
  Au  Au1       1.0  0.99945  0.66615  0.88993  1.0000
  Au  Au2       1.0  0.66670  0.00055  0.88993  1.0000
  Au  Au3       1.0  0.33385  0.33330  0.88993  1.0000
  Au  Au4       1.0  0.00055  0.66670  0.38993  1.0000
  Au  Au5       1.0  0.33330  0.33385  0.38993  1.0000
  Au  Au6       1.0  0.66615  0.99945  0.38993  1.0000
  Au  Au7       1.0  0.99960  0.33064  0.89032  1.0000
  Au  Au8       1.0  0.33104  0.00040  0.89032  1.0000
  Au  Au9       1.0  0.66936  0.66896  0.89032  1.0000
  Au  Au10      1.0  0.00040  0.33104  0.39032  1.0000
  Au  Au11      1.0  0.66896  0.66936  0.39032  1.0000
  Au  Au12      1.0  0.33064  0.99960  0.39032  1.0000
  Au  Au13      1.0  0.00000  0.00000  0.39154  1.0000
  Au  Au14      1.0  0.00000  0.00000  0.89154  1.0000
  Au  Au15      1.0  0.33333  0.66667  0.13825  1.0000
  Au  Au16      1.0  0.66667  0.33333  0.63825  1.0000
