data_image0
_chemical_formula_structural       Sb6Ag20
_chemical_formula_sum              "Sb6 Ag20"
_cell_length_a       11.0559
_cell_length_b       11.0559
_cell_length_c       4.88168
_cell_angle_alpha    90
_cell_angle_beta     90
_cell_angle_gamma    120

_space_group_name_H-M_alt    "P 1"
_space_group_IT_number       1

loop_
  _space_group_symop_operation_xyz
  'x, y, z'

loop_
  _atom_site_type_symbol
  _atom_site_label
  _atom_site_symmetry_multiplicity
  _atom_site_fract_x
  _atom_site_fract_y
  _atom_site_fract_z
  _atom_site_occupancy
  Sb  Sb1       1.0  0.63962  0.74305  0.25000  1.0000
  Sb  Sb2       1.0  0.25695  0.89657  0.25000  1.0000
  Sb  Sb3       1.0  0.10343  0.36038  0.25000  1.0000
  Sb  Sb4       1.0  0.36038  0.25695  0.75000  1.0000
  Sb  Sb5       1.0  0.74305  0.10343  0.75000  1.0000
  Sb  Sb6       1.0  0.89657  0.63962  0.75000  1.0000
  Ag  Ag1       1.0  0.87873  0.05372  0.25000  1.0000
  Ag  Ag2       1.0  0.94628  0.82502  0.25000  1.0000
  Ag  Ag3       1.0  0.17498  0.12127  0.25000  1.0000
  Ag  Ag4       1.0  0.12127  0.94628  0.75000  1.0000
  Ag  Ag5       1.0  0.05372  0.17498  0.75000  1.0000
  Ag  Ag6       1.0  0.82502  0.87873  0.75000  1.0000
  Ag  Ag7       1.0  0.56354  0.97768  0.25000  1.0000
  Ag  Ag8       1.0  0.02232  0.58586  0.25000  1.0000
  Ag  Ag9       1.0  0.41414  0.43646  0.25000  1.0000
  Ag  Ag10      1.0  0.43646  0.02232  0.75000  1.0000
  Ag  Ag11      1.0  0.97768  0.41414  0.75000  1.0000
  Ag  Ag12      1.0  0.58586  0.56354  0.75000  1.0000
  Ag  Ag13      1.0  0.79074  0.28576  0.25000  1.0000
  Ag  Ag14      1.0  0.71424  0.50498  0.25000  1.0000
  Ag  Ag15      1.0  0.49502  0.20926  0.25000  1.0000
  Ag  Ag16      1.0  0.20926  0.71424  0.75000  1.0000
  Ag  Ag17      1.0  0.28576  0.49502  0.75000  1.0000
  Ag  Ag18      1.0  0.50498  0.79074  0.75000  1.0000
  Ag  Ag19      1.0  0.66667  0.33333  0.75000  1.0000
  Ag  Ag20      1.0  0.33333  0.66667  0.25000  1.0000
