data_image0
_chemical_formula_structural       Sb3Au4
_chemical_formula_sum              "Sb3 Au4"
_cell_length_a       7.1135
_cell_length_b       7.1135
_cell_length_c       5.60835
_cell_angle_alpha    90.2909
_cell_angle_beta     90.2909
_cell_angle_gamma    34.9969

_space_group_name_H-M_alt    "P 1"
_space_group_IT_number       1

loop_
  _space_group_symop_operation_xyz
  'x, y, z'

loop_
  _atom_site_type_symbol
  _atom_site_label
  _atom_site_symmetry_multiplicity
  _atom_site_fract_x
  _atom_site_fract_y
  _atom_site_fract_z
  _atom_site_occupancy
  Sb  Sb1       1.0  0.00000  0.00000  0.00000  1.0000
  Sb  Sb2       1.0  0.29293  0.29293  0.74839  1.0000
  Sb  Sb3       1.0  0.70707  0.70707  0.25161  1.0000
  Au  Au1       1.0  0.10483  0.10483  0.45306  1.0000
  Au  Au2       1.0  0.89517  0.89517  0.54694  1.0000
  Au  Au3       1.0  0.62234  0.62234  0.79785  1.0000
  Au  Au4       1.0  0.37766  0.37766  0.20215  1.0000
