data_image0
_chemical_formula_structural       Sb4Au8
_chemical_formula_sum              "Sb4 Au8"
_cell_length_a       3.76761
_cell_length_b       5.75863
_cell_length_c       11.9008
_cell_angle_alpha    90
_cell_angle_beta     90
_cell_angle_gamma    90

_space_group_name_H-M_alt    "P 1"
_space_group_IT_number       1

loop_
  _space_group_symop_operation_xyz
  'x, y, z'

loop_
  _atom_site_type_symbol
  _atom_site_label
  _atom_site_symmetry_multiplicity
  _atom_site_fract_x
  _atom_site_fract_y
  _atom_site_fract_z
  _atom_site_occupancy
  Sb  Sb1       1.0  0.75000  0.75638  0.07769  1.0000
  Sb  Sb2       1.0  0.25000  0.24362  0.92231  1.0000
  Sb  Sb3       1.0  0.75000  0.25638  0.42231  1.0000
  Sb  Sb4       1.0  0.25000  0.74362  0.57769  1.0000
  Au  Au1       1.0  0.75000  0.45869  0.76389  1.0000
  Au  Au2       1.0  0.25000  0.54131  0.23611  1.0000
  Au  Au3       1.0  0.75000  0.95869  0.73611  1.0000
  Au  Au4       1.0  0.25000  0.04131  0.26389  1.0000
  Au  Au5       1.0  0.75000  0.24850  0.10286  1.0000
  Au  Au6       1.0  0.25000  0.75150  0.89714  1.0000
  Au  Au7       1.0  0.75000  0.74850  0.39714  1.0000
  Au  Au8       1.0  0.25000  0.25150  0.60286  1.0000
