data_image0
_chemical_formula_structural       Sb2Au3
_chemical_formula_sum              "Sb2 Au3"
_cell_length_a       8.27992
_cell_length_b       8.27992
_cell_length_c       8.27992
_cell_angle_alpha    28.6998
_cell_angle_beta     28.6998
_cell_angle_gamma    28.6998

_space_group_name_H-M_alt    "P 1"
_space_group_IT_number       1

loop_
  _space_group_symop_operation_xyz
  'x, y, z'

loop_
  _atom_site_type_symbol
  _atom_site_label
  _atom_site_symmetry_multiplicity
  _atom_site_fract_x
  _atom_site_fract_y
  _atom_site_fract_z
  _atom_site_occupancy
  Sb  Sb1       1.0  0.59623  0.59623  0.59623  1.0000
  Sb  Sb2       1.0  0.40377  0.40377  0.40377  1.0000
  Au  Au1       1.0  0.00000  0.00000  0.00000  1.0000
  Au  Au2       1.0  0.19900  0.19900  0.19900  1.0000
  Au  Au3       1.0  0.80100  0.80100  0.80100  1.0000
