data_image0
_chemical_formula_structural       Sb2Au4
_chemical_formula_sum              "Sb2 Au4"
_cell_length_a       3.84726
_cell_length_b       4.09659
_cell_length_c       8.24989
_cell_angle_alpha    90
_cell_angle_beta     90
_cell_angle_gamma    90

_space_group_name_H-M_alt    "P 1"
_space_group_IT_number       1

loop_
  _space_group_symop_operation_xyz
  'x, y, z'

loop_
  _atom_site_type_symbol
  _atom_site_label
  _atom_site_symmetry_multiplicity
  _atom_site_fract_x
  _atom_site_fract_y
  _atom_site_fract_z
  _atom_site_occupancy
  Sb  Sb1       1.0  0.00000  0.00000  0.00000  1.0000
  Sb  Sb2       1.0  0.50000  0.50000  0.50000  1.0000
  Au  Au1       1.0  0.00000  0.08601  0.33567  1.0000
  Au  Au2       1.0  0.00000  0.91399  0.66433  1.0000
  Au  Au3       1.0  0.50000  0.58601  0.16433  1.0000
  Au  Au4       1.0  0.50000  0.41399  0.83567  1.0000
