data_image0
_chemical_formula_structural       Sb3Ag4
_chemical_formula_sum              "Sb3 Ag4"
_cell_length_a       7.72773
_cell_length_b       7.72773
_cell_length_c       8.21422
_cell_angle_alpha    40.5692
_cell_angle_beta     40.5692
_cell_angle_gamma    35.6994

_space_group_name_H-M_alt    "P 1"
_space_group_IT_number       1

loop_
  _space_group_symop_operation_xyz
  'x, y, z'

loop_
  _atom_site_type_symbol
  _atom_site_label
  _atom_site_symmetry_multiplicity
  _atom_site_fract_x
  _atom_site_fract_y
  _atom_site_fract_z
  _atom_site_occupancy
  Sb  Sb1       1.0  0.18775  0.18775  0.75922  1.0000
  Sb  Sb2       1.0  0.81225  0.81225  0.24078  1.0000
  Sb  Sb3       1.0  0.50000  0.50000  0.50000  1.0000
  Ag  Ag1       1.0  0.91772  0.91772  0.42547  1.0000
  Ag  Ag2       1.0  0.08228  0.08228  0.57453  1.0000
  Ag  Ag3       1.0  0.42317  0.42317  0.94337  1.0000
  Ag  Ag4       1.0  0.57683  0.57683  0.05663  1.0000
