data_image0
_chemical_formula_structural       Sb14Au20
_chemical_formula_sum              "Sb14 Au20"
_cell_length_a       9.94327
_cell_length_b       9.94327
_cell_length_c       8.18707
_cell_angle_alpha    85.5127
_cell_angle_beta     85.5127
_cell_angle_gamma    85.1803

_space_group_name_H-M_alt    "P 1"
_space_group_IT_number       1

loop_
  _space_group_symop_operation_xyz
  'x, y, z'

loop_
  _atom_site_type_symbol
  _atom_site_label
  _atom_site_symmetry_multiplicity
  _atom_site_fract_x
  _atom_site_fract_y
  _atom_site_fract_z
  _atom_site_occupancy
  Sb  Sb1       1.0  0.14919  0.55204  0.58029  1.0000
  Sb  Sb2       1.0  0.47429  0.47429  0.72914  1.0000
  Sb  Sb3       1.0  0.88538  0.28776  0.81382  1.0000
  Sb  Sb4       1.0  0.85081  0.44796  0.41971  1.0000
  Sb  Sb5       1.0  0.27994  0.27994  0.02405  1.0000
  Sb  Sb6       1.0  0.71224  0.11462  0.18618  1.0000
  Sb  Sb7       1.0  0.12610  0.12610  0.47670  1.0000
  Sb  Sb8       1.0  0.11462  0.71224  0.18618  1.0000
  Sb  Sb9       1.0  0.44796  0.85081  0.41971  1.0000
  Sb  Sb10      1.0  0.87390  0.87390  0.52330  1.0000
  Sb  Sb11      1.0  0.28776  0.88538  0.81382  1.0000
  Sb  Sb12      1.0  0.52571  0.52571  0.27086  1.0000
  Sb  Sb13      1.0  0.72006  0.72006  0.97595  1.0000
  Sb  Sb14      1.0  0.55204  0.14919  0.58029  1.0000
  Au  Au1       1.0  0.19758  0.98216  0.15388  1.0000
  Au  Au2       1.0  0.74380  0.41045  0.10098  1.0000
  Au  Au3       1.0  0.16978  0.83022  0.50000  1.0000
  Au  Au4       1.0  0.87379  0.59317  0.70749  1.0000
  Au  Au5       1.0  0.80242  0.01784  0.84612  1.0000
  Au  Au6       1.0  0.41045  0.74380  0.10098  1.0000
  Au  Au7       1.0  0.40683  0.12621  0.29251  1.0000
  Au  Au8       1.0  0.83022  0.16978  0.50000  1.0000
  Au  Au9       1.0  0.25620  0.58955  0.89902  1.0000
  Au  Au10      1.0  0.01784  0.80242  0.84612  1.0000
  Au  Au11      1.0  0.12621  0.40683  0.29251  1.0000
  Au  Au12      1.0  0.87131  0.87131  0.17184  1.0000
  Au  Au13      1.0  0.00000  0.50000  0.00000  1.0000
  Au  Au14      1.0  0.64183  0.64183  0.52094  1.0000
  Au  Au15      1.0  0.59317  0.87379  0.70749  1.0000
  Au  Au16      1.0  0.98216  0.19758  0.15388  1.0000
  Au  Au17      1.0  0.58955  0.25620  0.89902  1.0000
  Au  Au18      1.0  0.12869  0.12869  0.82816  1.0000
  Au  Au19      1.0  0.50000  0.00000  0.00000  1.0000
  Au  Au20      1.0  0.35817  0.35817  0.47906  1.0000
