data_image0
_chemical_formula_structural       Sb8Au16
_chemical_formula_sum              "Sb8 Au16"
_cell_length_a       5.75854
_cell_length_b       7.66603
_cell_length_c       11.864
_cell_angle_alpha    90
_cell_angle_beta     90
_cell_angle_gamma    90

_space_group_name_H-M_alt    "P 1"
_space_group_IT_number       1

loop_
  _space_group_symop_operation_xyz
  'x, y, z'

loop_
  _atom_site_type_symbol
  _atom_site_label
  _atom_site_symmetry_multiplicity
  _atom_site_fract_x
  _atom_site_fract_y
  _atom_site_fract_z
  _atom_site_occupancy
  Sb  Sb1       1.0  0.58938  0.89469  0.12508  1.0000
  Sb  Sb2       1.0  0.91062  0.60531  0.62508  1.0000
  Sb  Sb3       1.0  0.91062  0.39469  0.87492  1.0000
  Sb  Sb4       1.0  0.58938  0.10531  0.37492  1.0000
  Sb  Sb5       1.0  0.41062  0.10531  0.87492  1.0000
  Sb  Sb6       1.0  0.08938  0.39469  0.37492  1.0000
  Sb  Sb7       1.0  0.08938  0.60531  0.12508  1.0000
  Sb  Sb8       1.0  0.41062  0.89469  0.62508  1.0000
  Au  Au1       1.0  0.49686  0.50000  0.25000  1.0000
  Au  Au2       1.0  0.00314  0.00000  0.75000  1.0000
  Au  Au3       1.0  0.50314  0.50000  0.75000  1.0000
  Au  Au4       1.0  0.99686  0.00000  0.25000  1.0000
  Au  Au5       1.0  0.32884  0.79757  0.37516  1.0000
  Au  Au6       1.0  0.17116  0.70243  0.87516  1.0000
  Au  Au7       1.0  0.17116  0.29757  0.62484  1.0000
  Au  Au8       1.0  0.32884  0.20243  0.12484  1.0000
  Au  Au9       1.0  0.67116  0.20243  0.62484  1.0000
  Au  Au10      1.0  0.82884  0.29757  0.12484  1.0000
  Au  Au11      1.0  0.82884  0.70243  0.37516  1.0000
  Au  Au12      1.0  0.67116  0.79757  0.87516  1.0000
  Au  Au13      1.0  0.50000  0.50000  0.00000  1.0000
  Au  Au14      1.0  0.00000  0.00000  0.50000  1.0000
  Au  Au15      1.0  0.00000  0.00000  0.00000  1.0000
  Au  Au16      1.0  0.50000  0.50000  0.50000  1.0000
