data_image0
_chemical_formula_structural       Br6Sb2
_chemical_formula_sum              "Br6 Sb2"
_cell_length_a       10.8463
_cell_length_b       10.8463
_cell_length_c       3.79091
_cell_angle_alpha    90
_cell_angle_beta     90
_cell_angle_gamma    120

_space_group_name_H-M_alt    "P 1"
_space_group_IT_number       1

loop_
  _space_group_symop_operation_xyz
  'x, y, z'

loop_
  _atom_site_type_symbol
  _atom_site_label
  _atom_site_symmetry_multiplicity
  _atom_site_fract_x
  _atom_site_fract_y
  _atom_site_fract_z
  _atom_site_occupancy
  Br  Br1       1.0  0.21899  0.43799  0.25000  1.0000
  Br  Br2       1.0  0.56201  0.78101  0.25000  1.0000
  Br  Br3       1.0  0.21899  0.78101  0.25000  1.0000
  Br  Br4       1.0  0.78101  0.56201  0.75000  1.0000
  Br  Br5       1.0  0.43799  0.21899  0.75000  1.0000
  Br  Br6       1.0  0.78101  0.21899  0.75000  1.0000
  Sb  Sb1       1.0  0.33333  0.66667  0.75000  1.0000
  Sb  Sb2       1.0  0.66667  0.33333  0.25000  1.0000
