data_image0
_chemical_formula_structural       Sb3F4
_chemical_formula_sum              "Sb3 F4"
_cell_length_a       7.27433
_cell_length_b       7.27433
_cell_length_c       7.7568
_cell_angle_alpha    39.168
_cell_angle_beta     39.168
_cell_angle_gamma    33.4863

_space_group_name_H-M_alt    "P 1"
_space_group_IT_number       1

loop_
  _space_group_symop_operation_xyz
  'x, y, z'

loop_
  _atom_site_type_symbol
  _atom_site_label
  _atom_site_symmetry_multiplicity
  _atom_site_fract_x
  _atom_site_fract_y
  _atom_site_fract_z
  _atom_site_occupancy
  Sb  Sb1       1.0  0.00000  0.00000  0.00000  1.0000
  Sb  Sb2       1.0  0.38043  0.38043  0.47881  1.0000
  Sb  Sb3       1.0  0.61957  0.61957  0.52119  1.0000
  F   F1        1.0  0.14660  0.14660  0.39864  1.0000
  F   F2        1.0  0.85340  0.85340  0.60136  1.0000
  F   F3        1.0  0.62049  0.62049  0.23208  1.0000
  F   F4        1.0  0.37951  0.37951  0.76792  1.0000
