data_image0
_chemical_formula_structural       F4Sb4
_chemical_formula_sum              "F4 Sb4"
_cell_length_a       4.1211
_cell_length_b       5.29067
_cell_length_c       7.78424
_cell_angle_alpha    90
_cell_angle_beta     90
_cell_angle_gamma    90

_space_group_name_H-M_alt    "P 1"
_space_group_IT_number       1

loop_
  _space_group_symop_operation_xyz
  'x, y, z'

loop_
  _atom_site_type_symbol
  _atom_site_label
  _atom_site_symmetry_multiplicity
  _atom_site_fract_x
  _atom_site_fract_y
  _atom_site_fract_z
  _atom_site_occupancy
  F   F1        1.0  0.25000  0.51151  0.22010  1.0000
  F   F2        1.0  0.75000  0.48849  0.77990  1.0000
  F   F3        1.0  0.25000  0.01151  0.27990  1.0000
  F   F4        1.0  0.75000  0.98849  0.72010  1.0000
  Sb  Sb1       1.0  0.25000  0.49073  0.66410  1.0000
  Sb  Sb2       1.0  0.75000  0.50927  0.33590  1.0000
  Sb  Sb3       1.0  0.25000  0.99073  0.83590  1.0000
  Sb  Sb4       1.0  0.75000  0.00927  0.16410  1.0000
