data_image0
_chemical_formula_structural       SbAu4
_chemical_formula_sum              "Sb1 Au4"
_cell_length_a       11.8487
_cell_length_b       11.8487
_cell_length_c       11.8487
_cell_angle_alpha    15.197
_cell_angle_beta     15.197
_cell_angle_gamma    15.197

_space_group_name_H-M_alt    "P 1"
_space_group_IT_number       1

loop_
  _space_group_symop_operation_xyz
  'x, y, z'

loop_
  _atom_site_type_symbol
  _atom_site_label
  _atom_site_symmetry_multiplicity
  _atom_site_fract_x
  _atom_site_fract_y
  _atom_site_fract_z
  _atom_site_occupancy
  Sb  Sb1       1.0  0.00000  0.00000  0.00000  1.0000
  Au  Au1       1.0  0.59625  0.59625  0.59625  1.0000
  Au  Au2       1.0  0.19856  0.19856  0.19856  1.0000
  Au  Au3       1.0  0.80144  0.80144  0.80144  1.0000
  Au  Au4       1.0  0.40375  0.40375  0.40375  1.0000
