data_image0
_chemical_formula_structural       Sb4F18
_chemical_formula_sum              "Sb4 F18"
_cell_length_a       8.22812
_cell_length_b       7.09403
_cell_length_c       7.04591
_cell_angle_alpha    95.4389
_cell_angle_beta     81.0806
_cell_angle_gamma    79.7153

_space_group_name_H-M_alt    "P 1"
_space_group_IT_number       1

loop_
  _space_group_symop_operation_xyz
  'x, y, z'

loop_
  _atom_site_type_symbol
  _atom_site_label
  _atom_site_symmetry_multiplicity
  _atom_site_fract_x
  _atom_site_fract_y
  _atom_site_fract_z
  _atom_site_occupancy
  Sb  Sb1       1.0  0.15646  0.16361  0.17864  1.0000
  Sb  Sb2       1.0  0.84354  0.83639  0.82136  1.0000
  Sb  Sb3       1.0  0.39195  0.39204  0.39747  1.0000
  Sb  Sb4       1.0  0.60805  0.60796  0.60253  1.0000
  F   F1        1.0  0.94994  0.13248  0.31491  1.0000
  F   F2        1.0  0.05006  0.86752  0.68509  1.0000
  F   F3        1.0  0.24574  0.44384  0.64653  1.0000
  F   F4        1.0  0.75426  0.55616  0.35347  1.0000
  F   F5        1.0  0.61856  0.76995  0.89693  1.0000
  F   F6        1.0  0.38144  0.23005  0.10307  1.0000
  F   F7        1.0  0.92184  0.73978  0.03622  1.0000
  F   F8        1.0  0.07816  0.26022  0.96378  1.0000
  F   F9        1.0  0.26487  0.12318  0.40789  1.0000
  F   F10       1.0  0.73513  0.87682  0.59211  1.0000
  F   F11       1.0  0.59860  0.41092  0.77252  1.0000
  F   F12       1.0  0.40140  0.58908  0.22748  1.0000
  F   F13       1.0  0.23315  0.90689  0.06406  1.0000
  F   F14       1.0  0.76685  0.09311  0.93594  1.0000
  F   F15       1.0  0.86496  0.56811  0.68587  1.0000
  F   F16       1.0  0.13504  0.43189  0.31413  1.0000
  F   F17       1.0  0.57751  0.17739  0.36750  1.0000
  F   F18       1.0  0.42249  0.82261  0.63250  1.0000
