data_image0
_chemical_formula_structural       SbAu2
_chemical_formula_sum              "Sb1 Au2"
_cell_length_a       4.08396
_cell_length_b       4.08396
_cell_length_c       4.73975
_cell_angle_alpha    90.0298
_cell_angle_beta     90.0298
_cell_angle_gamma    59.8724

_space_group_name_H-M_alt    "P 1"
_space_group_IT_number       1

loop_
  _space_group_symop_operation_xyz
  'x, y, z'

loop_
  _atom_site_type_symbol
  _atom_site_label
  _atom_site_symmetry_multiplicity
  _atom_site_fract_x
  _atom_site_fract_y
  _atom_site_fract_z
  _atom_site_occupancy
  Sb  Sb1       1.0  0.66581  0.33419  0.50000  1.0000
  Au  Au1       1.0  0.33385  0.99966  0.83610  1.0000
  Au  Au2       1.0  0.00034  0.66615  0.16390  1.0000
