data_image0
_chemical_formula_structural       Sb9Au5
_chemical_formula_sum              "Sb9 Au5"
_cell_length_a       8.31303
_cell_length_b       8.31303
_cell_length_c       10.646
_cell_angle_alpha    50.1703
_cell_angle_beta     50.1703
_cell_angle_gamma    47.9762

_space_group_name_H-M_alt    "P 1"
_space_group_IT_number       1

loop_
  _space_group_symop_operation_xyz
  'x, y, z'

loop_
  _atom_site_type_symbol
  _atom_site_label
  _atom_site_symmetry_multiplicity
  _atom_site_fract_x
  _atom_site_fract_y
  _atom_site_fract_z
  _atom_site_occupancy
  Sb  Sb1       1.0  0.45030  0.10924  0.31325  1.0000
  Sb  Sb2       1.0  0.89076  0.54970  0.68675  1.0000
  Sb  Sb3       1.0  0.26774  0.91499  0.12695  1.0000
  Sb  Sb4       1.0  0.97469  0.63159  0.29571  1.0000
  Sb  Sb5       1.0  0.36841  0.02531  0.70429  1.0000
  Sb  Sb6       1.0  0.67140  0.32860  0.50000  1.0000
  Sb  Sb7       1.0  0.08501  0.73226  0.87305  1.0000
  Sb  Sb8       1.0  0.77939  0.42166  0.09661  1.0000
  Sb  Sb9       1.0  0.57834  0.22061  0.90339  1.0000
  Au  Au1       1.0  0.00828  0.19558  0.60014  1.0000
  Au  Au2       1.0  0.42550  0.57450  0.00000  1.0000
  Au  Au3       1.0  0.80442  0.99172  0.39986  1.0000
  Au  Au4       1.0  0.23804  0.36027  0.80378  1.0000
  Au  Au5       1.0  0.63973  0.76196  0.19622  1.0000
