data_image0
_chemical_formula_structural       Au10Sb6
_chemical_formula_sum              "Au10 Sb6"
_cell_length_a       8.0205
_cell_length_b       8.0205
_cell_length_c       8.0205
_cell_angle_alpha    122.247
_cell_angle_beta     122.247
_cell_angle_gamma    86.1507

_space_group_name_H-M_alt    "P 1"
_space_group_IT_number       1

loop_
  _space_group_symop_operation_xyz
  'x, y, z'

loop_
  _atom_site_type_symbol
  _atom_site_label
  _atom_site_symmetry_multiplicity
  _atom_site_fract_x
  _atom_site_fract_y
  _atom_site_fract_z
  _atom_site_occupancy
  Au  Au1       1.0  0.47210  0.68729  0.50000  1.0000
  Au  Au2       1.0  0.52790  0.31271  0.50000  1.0000
  Au  Au3       1.0  0.50000  0.50000  0.00000  1.0000
  Au  Au4       1.0  0.00000  0.00000  0.00000  1.0000
  Au  Au5       1.0  0.18729  0.97210  0.50000  1.0000
  Au  Au6       1.0  0.97210  0.47210  0.78481  1.0000
  Au  Au7       1.0  0.68729  0.18729  0.21519  1.0000
  Au  Au8       1.0  0.31271  0.81271  0.78481  1.0000
  Au  Au9       1.0  0.02790  0.52790  0.21519  1.0000
  Au  Au10      1.0  0.81271  0.02790  0.50000  1.0000
  Sb  Sb1       1.0  0.82760  0.67240  0.50000  1.0000
  Sb  Sb2       1.0  0.67240  0.17240  0.84481  1.0000
  Sb  Sb3       1.0  0.32760  0.82760  0.15519  1.0000
  Sb  Sb4       1.0  0.17240  0.32760  0.50000  1.0000
  Sb  Sb5       1.0  0.25000  0.25000  0.00000  1.0000
  Sb  Sb6       1.0  0.75000  0.75000  0.00000  1.0000
