data_image0
_chemical_formula_structural       Sb2F4
_chemical_formula_sum              "Sb2 F4"
_cell_length_a       3.25995
_cell_length_b       3.25995
_cell_length_c       23.4016
_cell_angle_alpha    90
_cell_angle_beta     90
_cell_angle_gamma    120

_space_group_name_H-M_alt    "P 1"
_space_group_IT_number       1

loop_
  _space_group_symop_operation_xyz
  'x, y, z'

loop_
  _atom_site_type_symbol
  _atom_site_label
  _atom_site_symmetry_multiplicity
  _atom_site_fract_x
  _atom_site_fract_y
  _atom_site_fract_z
  _atom_site_occupancy
  Sb  Sb1       1.0  0.66667  0.33333  0.15176  1.0000
  Sb  Sb2       1.0  0.33333  0.66667  0.84824  1.0000
  F   F1        1.0  0.33333  0.66667  0.21717  1.0000
  F   F2        1.0  0.66667  0.33333  0.91369  1.0000
  F   F3        1.0  0.33333  0.66667  0.08631  1.0000
  F   F4        1.0  0.66667  0.33333  0.78283  1.0000
