data_image0
_chemical_formula_structural       Sb14Cl8
_chemical_formula_sum              "Sb14 Cl8"
_cell_length_a       9.51162
_cell_length_b       4.91417
_cell_length_c       16.0418
_cell_angle_alpha    90
_cell_angle_beta     90
_cell_angle_gamma    90

_space_group_name_H-M_alt    "P 1"
_space_group_IT_number       1

loop_
  _space_group_symop_operation_xyz
  'x, y, z'

loop_
  _atom_site_type_symbol
  _atom_site_label
  _atom_site_symmetry_multiplicity
  _atom_site_fract_x
  _atom_site_fract_y
  _atom_site_fract_z
  _atom_site_occupancy
  Sb  Sb1       1.0  0.67637  0.16717  0.57618  1.0000
  Sb  Sb2       1.0  0.67637  0.83283  0.42382  1.0000
  Sb  Sb3       1.0  0.32363  0.33283  0.07618  1.0000
  Sb  Sb4       1.0  0.32363  0.66717  0.92382  1.0000
  Sb  Sb5       1.0  0.14920  0.18558  0.66065  1.0000
  Sb  Sb6       1.0  0.14920  0.81442  0.33935  1.0000
  Sb  Sb7       1.0  0.85080  0.31442  0.16065  1.0000
  Sb  Sb8       1.0  0.85080  0.68558  0.83935  1.0000
  Sb  Sb9       1.0  0.09052  0.32947  0.84040  1.0000
  Sb  Sb10      1.0  0.09052  0.67053  0.15960  1.0000
  Sb  Sb11      1.0  0.90948  0.17053  0.34040  1.0000
  Sb  Sb12      1.0  0.90948  0.82947  0.65960  1.0000
  Sb  Sb13      1.0  0.89413  0.50000  0.50000  1.0000
  Sb  Sb14      1.0  0.10587  0.00000  0.00000  1.0000
  Cl  Cl1       1.0  0.66827  0.37289  0.79290  1.0000
  Cl  Cl2       1.0  0.66827  0.62711  0.20710  1.0000
  Cl  Cl3       1.0  0.33173  0.12711  0.29290  1.0000
  Cl  Cl4       1.0  0.33173  0.87289  0.70710  1.0000
  Cl  Cl5       1.0  0.48210  0.50000  0.50000  1.0000
  Cl  Cl6       1.0  0.51790  0.00000  0.00000  1.0000
  Cl  Cl7       1.0  0.18958  0.00000  0.50000  1.0000
  Cl  Cl8       1.0  0.81042  0.50000  0.00000  1.0000
