data_image0
_chemical_formula_structural       Sb8Br10
_chemical_formula_sum              "Sb8 Br10"
_cell_length_a       17.4393
_cell_length_b       17.0998
_cell_length_c       6.01999
_cell_angle_alpha    83.1615
_cell_angle_beta     76.7945
_cell_angle_gamma    20.044

_space_group_name_H-M_alt    "P 1"
_space_group_IT_number       1

loop_
  _space_group_symop_operation_xyz
  'x, y, z'

loop_
  _atom_site_type_symbol
  _atom_site_label
  _atom_site_symmetry_multiplicity
  _atom_site_fract_x
  _atom_site_fract_y
  _atom_site_fract_z
  _atom_site_occupancy
  Sb  Sb1       1.0  0.89274  0.89274  0.10726  1.0000
  Sb  Sb2       1.0  0.10726  0.10726  0.89274  1.0000
  Sb  Sb3       1.0  0.75000  0.75000  0.75000  1.0000
  Sb  Sb4       1.0  0.92475  0.92475  0.57525  1.0000
  Sb  Sb5       1.0  0.07525  0.07525  0.42475  1.0000
  Sb  Sb6       1.0  0.42475  0.42475  0.07525  1.0000
  Sb  Sb7       1.0  0.57525  0.57525  0.92475  1.0000
  Sb  Sb8       1.0  0.25000  0.25000  0.25000  1.0000
  Br  Br1       1.0  0.19113  0.80887  0.19113  1.0000
  Br  Br2       1.0  0.36427  0.99438  0.00562  1.0000
  Br  Br3       1.0  0.43757  0.43757  0.56243  1.0000
  Br  Br4       1.0  0.80887  0.19113  0.80887  1.0000
  Br  Br5       1.0  0.56243  0.56243  0.43757  1.0000
  Br  Br6       1.0  0.00562  0.63573  0.36427  1.0000
  Br  Br7       1.0  0.99438  0.36427  0.63573  1.0000
  Br  Br8       1.0  0.63573  0.00562  0.99438  1.0000
  Br  Br9       1.0  0.27410  0.27410  0.72590  1.0000
  Br  Br10      1.0  0.72590  0.72590  0.27410  1.0000
