data_image0
_chemical_formula_structural       Br9Sb13
_chemical_formula_sum              "Br9 Sb13"
_cell_length_a       9.5868
_cell_length_b       9.5868
_cell_length_c       9.07709
_cell_angle_alpha    90
_cell_angle_beta     90
_cell_angle_gamma    120

_space_group_name_H-M_alt    "P 1"
_space_group_IT_number       1

loop_
  _space_group_symop_operation_xyz
  'x, y, z'

loop_
  _atom_site_type_symbol
  _atom_site_label
  _atom_site_symmetry_multiplicity
  _atom_site_fract_x
  _atom_site_fract_y
  _atom_site_fract_z
  _atom_site_occupancy
  Br  Br1       1.0  0.00000  0.00000  0.50000  1.0000
  Br  Br2       1.0  0.33333  0.66667  0.67456  1.0000
  Br  Br3       1.0  0.66667  0.33333  0.32544  1.0000
  Br  Br4       1.0  0.19906  0.80094  0.35095  1.0000
  Br  Br5       1.0  0.19906  0.39812  0.35095  1.0000
  Br  Br6       1.0  0.60188  0.80094  0.35095  1.0000
  Br  Br7       1.0  0.39812  0.19906  0.64905  1.0000
  Br  Br8       1.0  0.80094  0.60188  0.64905  1.0000
  Br  Br9       1.0  0.80094  0.19906  0.64905  1.0000
  Sb  Sb1       1.0  0.00000  0.00000  0.00000  1.0000
  Sb  Sb2       1.0  0.50000  0.00000  0.00000  1.0000
  Sb  Sb3       1.0  1.00000  0.50000  0.00000  1.0000
  Sb  Sb4       1.0  0.50000  0.50000  0.00000  1.0000
  Sb  Sb5       1.0  0.50000  0.00000  0.50000  1.0000
  Sb  Sb6       1.0  1.00000  0.50000  0.50000  1.0000
  Sb  Sb7       1.0  0.50000  0.50000  0.50000  1.0000
  Sb  Sb8       1.0  0.16819  0.83181  0.87794  1.0000
  Sb  Sb9       1.0  0.16819  0.33639  0.87794  1.0000
  Sb  Sb10      1.0  0.66361  0.83181  0.87794  1.0000
  Sb  Sb11      1.0  0.33639  0.16819  0.12206  1.0000
  Sb  Sb12      1.0  0.83181  0.66361  0.12206  1.0000
  Sb  Sb13      1.0  0.83181  0.16819  0.12206  1.0000
