data_image0
_chemical_formula_structural       Au3Sb2
_chemical_formula_sum              "Au3 Sb2"
_cell_length_a       4.10729
_cell_length_b       4.10729
_cell_length_c       8.07995
_cell_angle_alpha    90
_cell_angle_beta     90
_cell_angle_gamma    120

_space_group_name_H-M_alt    "P 1"
_space_group_IT_number       1

loop_
  _space_group_symop_operation_xyz
  'x, y, z'

loop_
  _atom_site_type_symbol
  _atom_site_label
  _atom_site_symmetry_multiplicity
  _atom_site_fract_x
  _atom_site_fract_y
  _atom_site_fract_z
  _atom_site_occupancy
  Au  Au1       1.0  0.00000  0.00000  0.00000  1.0000
  Au  Au2       1.0  0.33333  0.66667  0.60190  1.0000
  Au  Au3       1.0  0.66667  0.33333  0.39810  1.0000
  Sb  Sb1       1.0  0.33333  0.66667  0.20566  1.0000
  Sb  Sb2       1.0  0.66667  0.33333  0.79434  1.0000
