data_image0
_chemical_formula_structural       Sb3F4
_chemical_formula_sum              "Sb3 F4"
_cell_length_a       7.25295
_cell_length_b       7.25295
_cell_length_c       7.72692
_cell_angle_alpha    39.3256
_cell_angle_beta     39.3256
_cell_angle_gamma    33.5902

_space_group_name_H-M_alt    "P 1"
_space_group_IT_number       1

loop_
  _space_group_symop_operation_xyz
  'x, y, z'

loop_
  _atom_site_type_symbol
  _atom_site_label
  _atom_site_symmetry_multiplicity
  _atom_site_fract_x
  _atom_site_fract_y
  _atom_site_fract_z
  _atom_site_occupancy
  Sb  Sb1       1.0  0.11794  0.11794  0.02595  1.0000
  Sb  Sb2       1.0  0.88206  0.88206  0.97405  1.0000
  Sb  Sb3       1.0  0.50000  0.50000  0.50000  1.0000
  F   F1        1.0  0.87982  0.87982  0.26803  1.0000
  F   F2        1.0  0.12018  0.12018  0.73197  1.0000
  F   F3        1.0  0.35723  0.35723  0.09501  1.0000
  F   F4        1.0  0.64277  0.64277  0.90499  1.0000
