data_image0
_chemical_formula_structural       Sb8Au8
_chemical_formula_sum              "Sb8 Au8"
_cell_length_a       7.73161
_cell_length_b       7.73161
_cell_length_c       6.90859
_cell_angle_alpha    90
_cell_angle_beta     90
_cell_angle_gamma    90

_space_group_name_H-M_alt    "P 1"
_space_group_IT_number       1

loop_
  _space_group_symop_operation_xyz
  'x, y, z'

loop_
  _atom_site_type_symbol
  _atom_site_label
  _atom_site_symmetry_multiplicity
  _atom_site_fract_x
  _atom_site_fract_y
  _atom_site_fract_z
  _atom_site_occupancy
  Sb  Sb1       1.0  0.57302  0.67463  0.00000  1.0000
  Sb  Sb2       1.0  0.32537  0.57302  0.50000  1.0000
  Sb  Sb3       1.0  0.67463  0.42698  0.50000  1.0000
  Sb  Sb4       1.0  0.42698  0.32537  0.00000  1.0000
  Sb  Sb5       1.0  0.50000  0.00000  0.50000  1.0000
  Sb  Sb6       1.0  0.00000  0.50000  0.00000  1.0000
  Sb  Sb7       1.0  0.00000  0.00000  0.75000  1.0000
  Sb  Sb8       1.0  0.00000  0.00000  0.25000  1.0000
  Au  Au1       1.0  0.18125  0.29981  0.70379  1.0000
  Au  Au2       1.0  0.70019  0.18125  0.20379  1.0000
  Au  Au3       1.0  0.29981  0.81875  0.20379  1.0000
  Au  Au4       1.0  0.81875  0.70019  0.70379  1.0000
  Au  Au5       1.0  0.81875  0.70019  0.29621  1.0000
  Au  Au6       1.0  0.29981  0.81875  0.79621  1.0000
  Au  Au7       1.0  0.70019  0.18125  0.79621  1.0000
  Au  Au8       1.0  0.18125  0.29981  0.29621  1.0000
