data_image0
_chemical_formula_structural       Sb2Au2
_chemical_formula_sum              "Sb2 Au2"
_cell_length_a       4.76781
_cell_length_b       4.76781
_cell_length_c       5.767
_cell_angle_alpha    90
_cell_angle_beta     90
_cell_angle_gamma    120

_space_group_name_H-M_alt    "P 1"
_space_group_IT_number       1

loop_
  _space_group_symop_operation_xyz
  'x, y, z'

loop_
  _atom_site_type_symbol
  _atom_site_label
  _atom_site_symmetry_multiplicity
  _atom_site_fract_x
  _atom_site_fract_y
  _atom_site_fract_z
  _atom_site_occupancy
  Sb  Sb1       1.0  0.66667  0.33333  0.43994  1.0000
  Sb  Sb2       1.0  0.33333  0.66667  0.93994  1.0000
  Au  Au1       1.0  0.66667  0.33333  0.94006  1.0000
  Au  Au2       1.0  0.33333  0.66667  0.44006  1.0000
