data_image0
_chemical_formula_structural       Au4Sb4
_chemical_formula_sum              "Au4 Sb4"
_cell_length_a       5.75841
_cell_length_b       5.75841
_cell_length_c       5.75841
_cell_angle_alpha    90
_cell_angle_beta     90
_cell_angle_gamma    90

_space_group_name_H-M_alt    "P 1"
_space_group_IT_number       1

loop_
  _space_group_symop_operation_xyz
  'x, y, z'

loop_
  _atom_site_type_symbol
  _atom_site_label
  _atom_site_symmetry_multiplicity
  _atom_site_fract_x
  _atom_site_fract_y
  _atom_site_fract_z
  _atom_site_occupancy
  Au  Au1       1.0  0.74569  0.75431  0.24569  1.0000
  Au  Au2       1.0  0.75431  0.24569  0.74569  1.0000
  Au  Au3       1.0  0.24569  0.74569  0.75431  1.0000
  Au  Au4       1.0  0.25431  0.25431  0.25431  1.0000
  Sb  Sb1       1.0  0.25417  0.24583  0.75417  1.0000
  Sb  Sb2       1.0  0.24583  0.75417  0.25417  1.0000
  Sb  Sb3       1.0  0.75417  0.25417  0.24583  1.0000
  Sb  Sb4       1.0  0.74583  0.74583  0.74583  1.0000
