data_image0
_chemical_formula_structural       Sb2F4
_chemical_formula_sum              "Sb2 F4"
_cell_length_a       4.16158
_cell_length_b       4.84881
_cell_length_c       5.34853
_cell_angle_alpha    90
_cell_angle_beta     90
_cell_angle_gamma    90

_space_group_name_H-M_alt    "P 1"
_space_group_IT_number       1

loop_
  _space_group_symop_operation_xyz
  'x, y, z'

loop_
  _atom_site_type_symbol
  _atom_site_label
  _atom_site_symmetry_multiplicity
  _atom_site_fract_x
  _atom_site_fract_y
  _atom_site_fract_z
  _atom_site_occupancy
  Sb  Sb1       1.0  0.00000  0.00000  0.00000  1.0000
  Sb  Sb2       1.0  0.50000  0.50000  0.50000  1.0000
  F   F1        1.0  0.00000  0.29386  0.33878  1.0000
  F   F2        1.0  0.00000  0.70614  0.66122  1.0000
  F   F3        1.0  0.50000  0.79386  0.16122  1.0000
  F   F4        1.0  0.50000  0.20614  0.83878  1.0000
