data_image0
_chemical_formula_structural       Cl9Sb13
_chemical_formula_sum              "Cl9 Sb13"
_cell_length_a       9.91814
_cell_length_b       9.91814
_cell_length_c       7.24372
_cell_angle_alpha    90
_cell_angle_beta     90
_cell_angle_gamma    120

_space_group_name_H-M_alt    "P 1"
_space_group_IT_number       1

loop_
  _space_group_symop_operation_xyz
  'x, y, z'

loop_
  _atom_site_type_symbol
  _atom_site_label
  _atom_site_symmetry_multiplicity
  _atom_site_fract_x
  _atom_site_fract_y
  _atom_site_fract_z
  _atom_site_occupancy
  Cl  Cl1       1.0  0.00000  0.00000  0.50000  1.0000
  Cl  Cl2       1.0  0.33333  0.66667  0.72578  1.0000
  Cl  Cl3       1.0  0.66667  0.33333  0.27422  1.0000
  Cl  Cl4       1.0  0.20277  0.79723  0.38206  1.0000
  Cl  Cl5       1.0  0.20277  0.40554  0.38206  1.0000
  Cl  Cl6       1.0  0.59446  0.79723  0.38206  1.0000
  Cl  Cl7       1.0  0.40554  0.20277  0.61794  1.0000
  Cl  Cl8       1.0  0.79723  0.59446  0.61794  1.0000
  Cl  Cl9       1.0  0.79723  0.20277  0.61794  1.0000
  Sb  Sb1       1.0  0.00000  0.00000  0.00000  1.0000
  Sb  Sb2       1.0  0.50000  0.00000  0.00000  1.0000
  Sb  Sb3       1.0  0.00000  0.50000  0.00000  1.0000
  Sb  Sb4       1.0  0.50000  0.50000  0.00000  1.0000
  Sb  Sb5       1.0  0.50000  0.00000  0.50000  1.0000
  Sb  Sb6       1.0  0.00000  0.50000  0.50000  1.0000
  Sb  Sb7       1.0  0.50000  0.50000  0.50000  1.0000
  Sb  Sb8       1.0  0.16831  0.83169  0.86329  1.0000
  Sb  Sb9       1.0  0.16831  0.33661  0.86329  1.0000
  Sb  Sb10      1.0  0.66339  0.83169  0.86329  1.0000
  Sb  Sb11      1.0  0.33661  0.16831  0.13671  1.0000
  Sb  Sb12      1.0  0.83169  0.66339  0.13671  1.0000
  Sb  Sb13      1.0  0.83169  0.16831  0.13671  1.0000
