data_image0
_chemical_formula_structural       Sb4Au8
_chemical_formula_sum              "Sb4 Au8"
_cell_length_a       7.26185
_cell_length_b       7.26185
_cell_length_c       7.26185
_cell_angle_alpha    60
_cell_angle_beta     60
_cell_angle_gamma    60

_space_group_name_H-M_alt    "P 1"
_space_group_IT_number       1

loop_
  _space_group_symop_operation_xyz
  'x, y, z'

loop_
  _atom_site_type_symbol
  _atom_site_label
  _atom_site_symmetry_multiplicity
  _atom_site_fract_x
  _atom_site_fract_y
  _atom_site_fract_z
  _atom_site_occupancy
  Sb  Sb1       1.0  0.62500  0.62500  0.62500  1.0000
  Sb  Sb2       1.0  0.12500  0.62500  0.62500  1.0000
  Sb  Sb3       1.0  0.62500  0.12500  0.62500  1.0000
  Sb  Sb4       1.0  0.62500  0.62500  0.12500  1.0000
  Au  Au1       1.0  0.90195  0.29416  0.90195  1.0000
  Au  Au2       1.0  0.34805  0.34805  0.95584  1.0000
  Au  Au3       1.0  0.95584  0.34805  0.34805  1.0000
  Au  Au4       1.0  0.34805  0.34805  0.34805  1.0000
  Au  Au5       1.0  0.29416  0.90195  0.90195  1.0000
  Au  Au6       1.0  0.90195  0.90195  0.90195  1.0000
  Au  Au7       1.0  0.90195  0.90195  0.29416  1.0000
  Au  Au8       1.0  0.34805  0.95584  0.34805  1.0000
