data_image0
_chemical_formula_structural       Sb4Au18
_chemical_formula_sum              "Sb4 Au18"
_cell_length_a       7.88672
_cell_length_b       7.88672
_cell_length_c       7.56661
_cell_angle_alpha    96.1716
_cell_angle_beta     96.1716
_cell_angle_gamma    86.5192

_space_group_name_H-M_alt    "P 1"
_space_group_IT_number       1

loop_
  _space_group_symop_operation_xyz
  'x, y, z'

loop_
  _atom_site_type_symbol
  _atom_site_label
  _atom_site_symmetry_multiplicity
  _atom_site_fract_x
  _atom_site_fract_y
  _atom_site_fract_z
  _atom_site_occupancy
  Sb  Sb1       1.0  0.35848  0.82584  0.04831  1.0000
  Sb  Sb2       1.0  0.17416  0.64152  0.45169  1.0000
  Sb  Sb3       1.0  0.64152  0.17416  0.95169  1.0000
  Sb  Sb4       1.0  0.82584  0.35848  0.54831  1.0000
  Au  Au1       1.0  0.48401  0.78098  0.57322  1.0000
  Au  Au2       1.0  0.21902  0.51599  0.92678  1.0000
  Au  Au3       1.0  0.75913  0.00926  0.63076  1.0000
  Au  Au4       1.0  0.99074  0.24087  0.86924  1.0000
  Au  Au5       1.0  0.24087  0.99074  0.36924  1.0000
  Au  Au6       1.0  0.00926  0.75913  0.13076  1.0000
  Au  Au7       1.0  0.21239  0.31660  0.58940  1.0000
  Au  Au8       1.0  0.68340  0.78761  0.91060  1.0000
  Au  Au9       1.0  0.78761  0.68340  0.41060  1.0000
  Au  Au10      1.0  0.31660  0.21239  0.08940  1.0000
  Au  Au11      1.0  0.00426  0.24993  0.25065  1.0000
  Au  Au12      1.0  0.75007  0.99574  0.24935  1.0000
  Au  Au13      1.0  0.99574  0.75007  0.74935  1.0000
  Au  Au14      1.0  0.24993  0.00426  0.75065  1.0000
  Au  Au15      1.0  0.78098  0.48401  0.07322  1.0000
  Au  Au16      1.0  0.51599  0.21902  0.42678  1.0000
  Au  Au17      1.0  0.46962  0.53038  0.25000  1.0000
  Au  Au18      1.0  0.53038  0.46962  0.75000  1.0000
