data_image0
_chemical_formula_structural       Cl10Sb6
_chemical_formula_sum              "Cl10 Sb6"
_cell_length_a       10.8162
_cell_length_b       10.8162
_cell_length_c       10.8162
_cell_angle_alpha    134.384
_cell_angle_beta     134.384
_cell_angle_gamma    66.4883

_space_group_name_H-M_alt    "P 1"
_space_group_IT_number       1

loop_
  _space_group_symop_operation_xyz
  'x, y, z'

loop_
  _atom_site_type_symbol
  _atom_site_label
  _atom_site_symmetry_multiplicity
  _atom_site_fract_x
  _atom_site_fract_y
  _atom_site_fract_z
  _atom_site_occupancy
  Cl  Cl1       1.0  0.55371  0.74876  0.50000  1.0000
  Cl  Cl2       1.0  0.44629  0.25124  0.50000  1.0000
  Cl  Cl3       1.0  0.50000  0.50000  0.00000  1.0000
  Cl  Cl4       1.0  0.00000  0.00000  0.00000  1.0000
  Cl  Cl5       1.0  0.24876  0.05371  0.50000  1.0000
  Cl  Cl6       1.0  0.05371  0.55371  0.80495  1.0000
  Cl  Cl7       1.0  0.74876  0.24876  0.19505  1.0000
  Cl  Cl8       1.0  0.25124  0.75124  0.80495  1.0000
  Cl  Cl9       1.0  0.94629  0.44629  0.19505  1.0000
  Cl  Cl10      1.0  0.75124  0.94629  0.50000  1.0000
  Sb  Sb1       1.0  0.78823  0.71177  0.50000  1.0000
  Sb  Sb2       1.0  0.71177  0.21177  0.92355  1.0000
  Sb  Sb3       1.0  0.28823  0.78823  0.07645  1.0000
  Sb  Sb4       1.0  0.21177  0.28823  0.50000  1.0000
  Sb  Sb5       1.0  0.25000  0.25000  0.00000  1.0000
  Sb  Sb6       1.0  0.75000  0.75000  0.00000  1.0000
