data_image0
_chemical_formula_structural       Sb2F4
_chemical_formula_sum              "Sb2 F4"
_cell_length_a       5.08327
_cell_length_b       5.08327
_cell_length_c       5.08327
_cell_angle_alpha    108.345
_cell_angle_beta     108.345
_cell_angle_gamma    111.748

_space_group_name_H-M_alt    "P 1"
_space_group_IT_number       1

loop_
  _space_group_symop_operation_xyz
  'x, y, z'

loop_
  _atom_site_type_symbol
  _atom_site_label
  _atom_site_symmetry_multiplicity
  _atom_site_fract_x
  _atom_site_fract_y
  _atom_site_fract_z
  _atom_site_occupancy
  Sb  Sb1       1.0  0.75000  0.75000  0.00000  1.0000
  Sb  Sb2       1.0  0.25000  0.25000  0.00000  1.0000
  F   F1        1.0  0.29055  0.20945  0.50000  1.0000
  F   F2        1.0  0.79055  0.29055  0.08111  1.0000
  F   F3        1.0  0.70945  0.79055  0.50000  1.0000
  F   F4        1.0  0.20945  0.70945  0.91889  1.0000
