data_image0
_chemical_formula_structural       Sb6Au16
_chemical_formula_sum              "Sb6 Au16"
_cell_length_a       6.38438
_cell_length_b       6.62878
_cell_length_c       12.847
_cell_angle_alpha    62.0326
_cell_angle_beta     90
_cell_angle_gamma    90

_space_group_name_H-M_alt    "P 1"
_space_group_IT_number       1

loop_
  _space_group_symop_operation_xyz
  'x, y, z'

loop_
  _atom_site_type_symbol
  _atom_site_label
  _atom_site_symmetry_multiplicity
  _atom_site_fract_x
  _atom_site_fract_y
  _atom_site_fract_z
  _atom_site_occupancy
  Sb  Sb1       1.0  0.47730  0.83712  0.75525  1.0000
  Sb  Sb2       1.0  0.52270  0.16288  0.24475  1.0000
  Sb  Sb3       1.0  0.50000  0.00000  0.00000  1.0000
  Sb  Sb4       1.0  0.97730  0.16288  0.74475  1.0000
  Sb  Sb5       1.0  0.02270  0.83712  0.25525  1.0000
  Sb  Sb6       1.0  0.00000  0.00000  0.50000  1.0000
  Au  Au1       1.0  0.69950  0.62302  0.19719  1.0000
  Au  Au2       1.0  0.57272  0.29226  0.65319  1.0000
  Au  Au3       1.0  0.68768  0.63693  0.96515  1.0000
  Au  Au4       1.0  0.60801  0.23758  0.44345  1.0000
  Au  Au5       1.0  0.89199  0.23758  0.94345  1.0000
  Au  Au6       1.0  0.92728  0.29226  0.15319  1.0000
  Au  Au7       1.0  0.81232  0.63693  0.46515  1.0000
  Au  Au8       1.0  0.80050  0.62302  0.69719  1.0000
  Au  Au9       1.0  0.07272  0.70774  0.84681  1.0000
  Au  Au10      1.0  0.10801  0.76242  0.05655  1.0000
  Au  Au11      1.0  0.18768  0.36307  0.53485  1.0000
  Au  Au12      1.0  0.19950  0.37698  0.30281  1.0000
  Au  Au13      1.0  0.31232  0.36307  0.03485  1.0000
  Au  Au14      1.0  0.30050  0.37698  0.80281  1.0000
  Au  Au15      1.0  0.42728  0.70774  0.34681  1.0000
  Au  Au16      1.0  0.39199  0.76242  0.55655  1.0000
