data_image0
_chemical_formula_structural       Sb4Cl8
_chemical_formula_sum              "Sb4 Cl8"
_cell_length_a       14.2618
_cell_length_b       14.2618
_cell_length_c       12.9578
_cell_angle_alpha    50.9019
_cell_angle_beta     50.9019
_cell_angle_gamma    13.8906

_space_group_name_H-M_alt    "P 1"
_space_group_IT_number       1

loop_
  _space_group_symop_operation_xyz
  'x, y, z'

loop_
  _atom_site_type_symbol
  _atom_site_label
  _atom_site_symmetry_multiplicity
  _atom_site_fract_x
  _atom_site_fract_y
  _atom_site_fract_z
  _atom_site_occupancy
  Sb  Sb1       1.0  0.66323  0.66323  0.97131  1.0000
  Sb  Sb2       1.0  0.33677  0.33677  0.02869  1.0000
  Sb  Sb3       1.0  0.39128  0.39128  0.34432  1.0000
  Sb  Sb4       1.0  0.60872  0.60872  0.65568  1.0000
  Cl  Cl1       1.0  0.98366  0.98366  0.19180  1.0000
  Cl  Cl2       1.0  0.01634  0.01634  0.80820  1.0000
  Cl  Cl3       1.0  0.85948  0.85948  0.53581  1.0000
  Cl  Cl4       1.0  0.14052  0.14052  0.46419  1.0000
  Cl  Cl5       1.0  0.65714  0.65714  0.16138  1.0000
  Cl  Cl6       1.0  0.34286  0.34286  0.83862  1.0000
  Cl  Cl7       1.0  0.16954  0.16954  0.69613  1.0000
  Cl  Cl8       1.0  0.83046  0.83046  0.30387  1.0000
