data_image0
_chemical_formula_structural       Sb3Br3
_chemical_formula_sum              "Sb3 Br3"
_cell_length_a       7.5278
_cell_length_b       7.5278
_cell_length_c       7.5278
_cell_angle_alpha    114.818
_cell_angle_beta     114.818
_cell_angle_gamma    114.818

_space_group_name_H-M_alt    "P 1"
_space_group_IT_number       1

loop_
  _space_group_symop_operation_xyz
  'x, y, z'

loop_
  _atom_site_type_symbol
  _atom_site_label
  _atom_site_symmetry_multiplicity
  _atom_site_fract_x
  _atom_site_fract_y
  _atom_site_fract_z
  _atom_site_occupancy
  Sb  Sb1       1.0  0.25544  0.02985  0.02985  1.0000
  Sb  Sb2       1.0  0.02985  0.02985  0.25544  1.0000
  Sb  Sb3       1.0  0.02985  0.25544  0.02985  1.0000
  Br  Br1       1.0  0.40627  0.69529  0.69529  1.0000
  Br  Br2       1.0  0.69529  0.69529  0.40627  1.0000
  Br  Br3       1.0  0.69529  0.40627  0.69529  1.0000
