data_image0
_chemical_formula_structural       SbBr4
_chemical_formula_sum              "Sb1 Br4"
_cell_length_a       7.39851
_cell_length_b       7.39851
_cell_length_c       7.39851
_cell_angle_alpha    93.6066
_cell_angle_beta     93.6066
_cell_angle_gamma    150.949

_space_group_name_H-M_alt    "P 1"
_space_group_IT_number       1

loop_
  _space_group_symop_operation_xyz
  'x, y, z'

loop_
  _atom_site_type_symbol
  _atom_site_label
  _atom_site_symmetry_multiplicity
  _atom_site_fract_x
  _atom_site_fract_y
  _atom_site_fract_z
  _atom_site_occupancy
  Sb  Sb1       1.0  0.00000  0.00000  0.00000  1.0000
  Br  Br1       1.0  0.56103  0.72218  0.28321  1.0000
  Br  Br2       1.0  0.43897  0.27782  0.71679  1.0000
  Br  Br3       1.0  0.27782  0.56103  0.83885  1.0000
  Br  Br4       1.0  0.72218  0.43897  0.16115  1.0000
