data_image0
_chemical_formula_structural       Au8Sb4
_chemical_formula_sum              "Au8 Sb4"
_cell_length_a       8.23665
_cell_length_b       4.70191
_cell_length_c       8.66736
_cell_angle_alpha    56.8605
_cell_angle_beta     90
_cell_angle_gamma    90

_space_group_name_H-M_alt    "P 1"
_space_group_IT_number       1

loop_
  _space_group_symop_operation_xyz
  'x, y, z'

loop_
  _atom_site_type_symbol
  _atom_site_label
  _atom_site_symmetry_multiplicity
  _atom_site_fract_x
  _atom_site_fract_y
  _atom_site_fract_z
  _atom_site_occupancy
  Au  Au1       1.0  0.32049  0.38311  0.35667  1.0000
  Au  Au2       1.0  0.67951  0.38311  0.85667  1.0000
  Au  Au3       1.0  0.33425  0.60657  0.82172  1.0000
  Au  Au4       1.0  0.83637  0.22552  0.20380  1.0000
  Au  Au5       1.0  0.66575  0.60657  0.32172  1.0000
  Au  Au6       1.0  0.16363  0.22552  0.70380  1.0000
  Au  Au7       1.0  0.81863  0.06518  0.67453  1.0000
  Au  Au8       1.0  0.18137  0.06518  0.17453  1.0000
  Sb  Sb1       1.0  0.42259  0.90959  0.00381  1.0000
  Sb  Sb2       1.0  0.57741  0.90959  0.50381  1.0000
  Sb  Sb3       1.0  0.92560  0.89332  0.02276  1.0000
  Sb  Sb4       1.0  0.07440  0.89332  0.52276  1.0000
