data_image0
_chemical_formula_structural       Sb10Au6
_chemical_formula_sum              "Sb10 Au6"
_cell_length_a       8.52651
_cell_length_b       8.52651
_cell_length_c       8.52651
_cell_angle_alpha    97.2209
_cell_angle_beta     97.2209
_cell_angle_gamma    138.47

_space_group_name_H-M_alt    "P 1"
_space_group_IT_number       1

loop_
  _space_group_symop_operation_xyz
  'x, y, z'

loop_
  _atom_site_type_symbol
  _atom_site_label
  _atom_site_symmetry_multiplicity
  _atom_site_fract_x
  _atom_site_fract_y
  _atom_site_fract_z
  _atom_site_occupancy
  Sb  Sb1       1.0  0.57740  0.28350  0.86089  1.0000
  Sb  Sb2       1.0  0.42260  0.71650  0.13911  1.0000
  Sb  Sb3       1.0  0.71650  0.57740  0.29390  1.0000
  Sb  Sb4       1.0  0.28350  0.42260  0.70610  1.0000
  Sb  Sb5       1.0  0.92260  0.78350  0.70610  1.0000
  Sb  Sb6       1.0  0.21650  0.92260  0.13911  1.0000
  Sb  Sb7       1.0  0.25000  0.75000  0.50000  1.0000
  Sb  Sb8       1.0  0.75000  0.25000  0.50000  1.0000
  Sb  Sb9       1.0  0.07740  0.21650  0.29390  1.0000
  Sb  Sb10      1.0  0.78350  0.07740  0.86089  1.0000
  Au  Au1       1.0  0.83705  0.33705  0.17410  1.0000
  Au  Au2       1.0  0.66295  0.83705  0.50000  1.0000
  Au  Au3       1.0  0.33705  0.16295  0.50000  1.0000
  Au  Au4       1.0  0.16295  0.66295  0.82590  1.0000
  Au  Au5       1.0  0.75000  0.75000  0.00000  1.0000
  Au  Au6       1.0  0.25000  0.25000  0.00000  1.0000
