data_image0
_chemical_formula_structural       Sb3Hg4
_chemical_formula_sum              "Sb3 Hg4"
_cell_length_a       7.10561
_cell_length_b       7.10561
_cell_length_c       8.43858
_cell_angle_alpha    54.9475
_cell_angle_beta     54.9475
_cell_angle_gamma    38.1992

_space_group_name_H-M_alt    "P 1"
_space_group_IT_number       1

loop_
  _space_group_symop_operation_xyz
  'x, y, z'

loop_
  _atom_site_type_symbol
  _atom_site_label
  _atom_site_symmetry_multiplicity
  _atom_site_fract_x
  _atom_site_fract_y
  _atom_site_fract_z
  _atom_site_occupancy
  Sb  Sb1       1.0  0.13726  0.13726  0.85596  1.0000
  Sb  Sb2       1.0  0.86274  0.86274  0.14404  1.0000
  Sb  Sb3       1.0  0.50000  0.50000  0.50000  1.0000
  Hg  Hg1       1.0  0.85199  0.85199  0.51631  1.0000
  Hg  Hg2       1.0  0.14801  0.14801  0.48369  1.0000
  Hg  Hg3       1.0  0.36384  0.36384  0.93474  1.0000
  Hg  Hg4       1.0  0.63616  0.63616  0.06526  1.0000
