data_image0
_chemical_formula_structural       Sb4F12
_chemical_formula_sum              "Sb4 F12"
_cell_length_a       7.49723
_cell_length_b       7.49723
_cell_length_c       5.22619
_cell_angle_alpha    90
_cell_angle_beta     90
_cell_angle_gamma    138.718

_space_group_name_H-M_alt    "P 1"
_space_group_IT_number       1

loop_
  _space_group_symop_operation_xyz
  'x, y, z'

loop_
  _atom_site_type_symbol
  _atom_site_label
  _atom_site_symmetry_multiplicity
  _atom_site_fract_x
  _atom_site_fract_y
  _atom_site_fract_z
  _atom_site_occupancy
  Sb  Sb1       1.0  0.63227  0.36773  0.00000  1.0000
  Sb  Sb2       1.0  0.36773  0.63227  0.00000  1.0000
  Sb  Sb3       1.0  0.13227  0.86773  0.50000  1.0000
  Sb  Sb4       1.0  0.86773  0.13227  0.50000  1.0000
  F   F1        1.0  0.66326  0.66326  0.16160  1.0000
  F   F2        1.0  0.16326  0.16326  0.33840  1.0000
  F   F3        1.0  0.83674  0.83674  0.66160  1.0000
  F   F4        1.0  0.37677  0.62323  0.50000  1.0000
  F   F5        1.0  0.99745  0.49745  0.75000  1.0000
  F   F6        1.0  0.87677  0.12323  0.00000  1.0000
  F   F7        1.0  0.00255  0.50255  0.25000  1.0000
  F   F8        1.0  0.33674  0.33674  0.83840  1.0000
  F   F9        1.0  0.62323  0.37677  0.50000  1.0000
  F   F10       1.0  0.12323  0.87677  0.00000  1.0000
  F   F11       1.0  0.50255  0.00255  0.25000  1.0000
  F   F12       1.0  0.49745  0.99745  0.75000  1.0000
