data_image0
_chemical_formula_structural       F10Sb6
_chemical_formula_sum              "F10 Sb6"
_cell_length_a       7.53885
_cell_length_b       7.53885
_cell_length_c       7.53885
_cell_angle_alpha    110.375
_cell_angle_beta     110.375
_cell_angle_gamma    107.679

_space_group_name_H-M_alt    "P 1"
_space_group_IT_number       1

loop_
  _space_group_symop_operation_xyz
  'x, y, z'

loop_
  _atom_site_type_symbol
  _atom_site_label
  _atom_site_symmetry_multiplicity
  _atom_site_fract_x
  _atom_site_fract_y
  _atom_site_fract_z
  _atom_site_occupancy
  F   F1        1.0  0.49441  0.70912  0.50000  1.0000
  F   F2        1.0  0.50559  0.29088  0.50000  1.0000
  F   F3        1.0  0.50000  0.50000  0.00000  1.0000
  F   F4        1.0  0.00000  0.00000  0.00000  1.0000
  F   F5        1.0  0.20912  0.99441  0.50000  1.0000
  F   F6        1.0  0.99441  0.49441  0.78529  1.0000
  F   F7        1.0  0.70912  0.20912  0.21471  1.0000
  F   F8        1.0  0.29088  0.79088  0.78529  1.0000
  F   F9        1.0  0.00559  0.50559  0.21471  1.0000
  F   F10       1.0  0.79088  0.00559  0.50000  1.0000
  Sb  Sb1       1.0  0.76253  0.73747  0.50000  1.0000
  Sb  Sb2       1.0  0.73747  0.23747  0.97494  1.0000
  Sb  Sb3       1.0  0.26253  0.76253  0.02506  1.0000
  Sb  Sb4       1.0  0.23747  0.26253  0.50000  1.0000
  Sb  Sb5       1.0  0.25000  0.25000  0.00000  1.0000
  Sb  Sb6       1.0  0.75000  0.75000  0.00000  1.0000
