data_image0
_chemical_formula_structural       SbHg2
_chemical_formula_sum              "Sb1 Hg2"
_cell_length_a       3.43715
_cell_length_b       3.43715
_cell_length_c       7.07786
_cell_angle_alpha    93.8546
_cell_angle_beta     93.8546
_cell_angle_gamma    76.5982

_space_group_name_H-M_alt    "P 1"
_space_group_IT_number       1

loop_
  _space_group_symop_operation_xyz
  'x, y, z'

loop_
  _atom_site_type_symbol
  _atom_site_label
  _atom_site_symmetry_multiplicity
  _atom_site_fract_x
  _atom_site_fract_y
  _atom_site_fract_z
  _atom_site_occupancy
  Sb  Sb1       1.0  0.66609  0.33391  0.50000  1.0000
  Hg  Hg1       1.0  0.32085  0.98694  0.83569  1.0000
  Hg  Hg2       1.0  0.01306  0.67915  0.16431  1.0000
