data_image0
_chemical_formula_structural       Hg8Sb4
_chemical_formula_sum              "Hg8 Sb4"
_cell_length_a       9.88242
_cell_length_b       4.86453
_cell_length_c       8.06884
_cell_angle_alpha    65.95
_cell_angle_beta     90
_cell_angle_gamma    90

_space_group_name_H-M_alt    "P 1"
_space_group_IT_number       1

loop_
  _space_group_symop_operation_xyz
  'x, y, z'

loop_
  _atom_site_type_symbol
  _atom_site_label
  _atom_site_symmetry_multiplicity
  _atom_site_fract_x
  _atom_site_fract_y
  _atom_site_fract_z
  _atom_site_occupancy
  Hg  Hg1       1.0  0.37542  0.30712  0.28209  1.0000
  Hg  Hg2       1.0  0.62458  0.30712  0.78209  1.0000
  Hg  Hg3       1.0  0.37390  0.72365  0.75186  1.0000
  Hg  Hg4       1.0  0.87378  0.30286  0.27704  1.0000
  Hg  Hg5       1.0  0.62610  0.72365  0.25186  1.0000
  Hg  Hg6       1.0  0.12622  0.30286  0.77704  1.0000
  Hg  Hg7       1.0  0.87581  0.72019  0.74465  1.0000
  Hg  Hg8       1.0  0.12419  0.72019  0.24465  1.0000
  Sb  Sb1       1.0  0.37614  0.01765  0.01582  1.0000
  Sb  Sb2       1.0  0.62386  0.01765  0.51582  1.0000
  Sb  Sb3       1.0  0.87568  0.01182  0.01184  1.0000
  Sb  Sb4       1.0  0.12432  0.01182  0.51184  1.0000
