data_image0
_chemical_formula_structural       Sb3F6
_chemical_formula_sum              "Sb3 F6"
_cell_length_a       4.17802
_cell_length_b       4.17802
_cell_length_c       8.71682
_cell_angle_alpha    90
_cell_angle_beta     90
_cell_angle_gamma    120

_space_group_name_H-M_alt    "P 1"
_space_group_IT_number       1

loop_
  _space_group_symop_operation_xyz
  'x, y, z'

loop_
  _atom_site_type_symbol
  _atom_site_label
  _atom_site_symmetry_multiplicity
  _atom_site_fract_x
  _atom_site_fract_y
  _atom_site_fract_z
  _atom_site_occupancy
  Sb  Sb1       1.0  0.00000  0.50000  0.16667  1.0000
  Sb  Sb2       1.0  0.50000  0.50000  0.83333  1.0000
  Sb  Sb3       1.0  0.50000  0.00000  0.50000  1.0000
  F   F1        1.0  0.83631  0.67262  0.50000  1.0000
  F   F2        1.0  0.16369  0.83631  0.83333  1.0000
  F   F3        1.0  0.67262  0.83631  0.16667  1.0000
  F   F4        1.0  0.16369  0.32738  0.50000  1.0000
  F   F5        1.0  0.83631  0.16369  0.83333  1.0000
  F   F6        1.0  0.32738  0.16369  0.16667  1.0000
