data_image0
_chemical_formula_structural       Sb3Hg4
_chemical_formula_sum              "Sb3 Hg4"
_cell_length_a       7.25612
_cell_length_b       7.25612
_cell_length_c       8.11008
_cell_angle_alpha    55.5542
_cell_angle_beta     55.5542
_cell_angle_gamma    38.1324

_space_group_name_H-M_alt    "P 1"
_space_group_IT_number       1

loop_
  _space_group_symop_operation_xyz
  'x, y, z'

loop_
  _atom_site_type_symbol
  _atom_site_label
  _atom_site_symmetry_multiplicity
  _atom_site_fract_x
  _atom_site_fract_y
  _atom_site_fract_z
  _atom_site_occupancy
  Sb  Sb1       1.0  0.00000  0.00000  0.00000  1.0000
  Sb  Sb2       1.0  0.29188  0.29188  0.70446  1.0000
  Sb  Sb3       1.0  0.70812  0.70812  0.29554  1.0000
  Hg  Hg1       1.0  0.09947  0.09947  0.54804  1.0000
  Hg  Hg2       1.0  0.90053  0.90053  0.45196  1.0000
  Hg  Hg3       1.0  0.62675  0.62675  0.04305  1.0000
  Hg  Hg4       1.0  0.37325  0.37325  0.95695  1.0000
