data_image0
_chemical_formula_structural       SbHg4
_chemical_formula_sum              "Sb1 Hg4"
_cell_length_a       5.81009
_cell_length_b       5.81009
_cell_length_c       5.81009
_cell_angle_alpha    99.2186
_cell_angle_beta     99.2186
_cell_angle_gamma    132.812

_space_group_name_H-M_alt    "P 1"
_space_group_IT_number       1

loop_
  _space_group_symop_operation_xyz
  'x, y, z'

loop_
  _atom_site_type_symbol
  _atom_site_label
  _atom_site_symmetry_multiplicity
  _atom_site_fract_x
  _atom_site_fract_y
  _atom_site_fract_z
  _atom_site_occupancy
  Sb  Sb1       1.0  0.00000  0.00000  0.00000  1.0000
  Hg  Hg1       1.0  0.59838  0.80088  0.39926  1.0000
  Hg  Hg2       1.0  0.40162  0.19912  0.60074  1.0000
  Hg  Hg3       1.0  0.19912  0.59838  0.79749  1.0000
  Hg  Hg4       1.0  0.80088  0.40162  0.20251  1.0000
