data_image0
_chemical_formula_structural       F8Sb4
_chemical_formula_sum              "F8 Sb4"
_cell_length_a       3.24589
_cell_length_b       7.7947
_cell_length_c       9.34419
_cell_angle_alpha    63.9851
_cell_angle_beta     90
_cell_angle_gamma    90

_space_group_name_H-M_alt    "P 1"
_space_group_IT_number       1

loop_
  _space_group_symop_operation_xyz
  'x, y, z'

loop_
  _atom_site_type_symbol
  _atom_site_label
  _atom_site_symmetry_multiplicity
  _atom_site_fract_x
  _atom_site_fract_y
  _atom_site_fract_z
  _atom_site_occupancy
  F   F1        1.0  0.26132  0.14615  0.36133  1.0000
  F   F2        1.0  0.76132  0.85385  0.13867  1.0000
  F   F3        1.0  0.73868  0.85385  0.63867  1.0000
  F   F4        1.0  0.23868  0.14615  0.86133  1.0000
  F   F5        1.0  0.74325  0.49097  0.62580  1.0000
  F   F6        1.0  0.24325  0.50903  0.87420  1.0000
  F   F7        1.0  0.25675  0.50903  0.37420  1.0000
  F   F8        1.0  0.75675  0.49097  0.12580  1.0000
  Sb  Sb1       1.0  0.23739  0.23814  0.03265  1.0000
  Sb  Sb2       1.0  0.73739  0.76186  0.46735  1.0000
  Sb  Sb3       1.0  0.76261  0.76186  0.96735  1.0000
  Sb  Sb4       1.0  0.26261  0.23814  0.53265  1.0000
