data_image0
_chemical_formula_structural       F8Sb4
_chemical_formula_sum              "F8 Sb4"
_cell_length_a       10.2107
_cell_length_b       4.87
_cell_length_c       5.15404
_cell_angle_alpha    58.0728
_cell_angle_beta     90
_cell_angle_gamma    90

_space_group_name_H-M_alt    "P 1"
_space_group_IT_number       1

loop_
  _space_group_symop_operation_xyz
  'x, y, z'

loop_
  _atom_site_type_symbol
  _atom_site_label
  _atom_site_symmetry_multiplicity
  _atom_site_fract_x
  _atom_site_fract_y
  _atom_site_fract_z
  _atom_site_occupancy
  F   F1        1.0  0.41771  0.43908  0.36046  1.0000
  F   F2        1.0  0.58229  0.43908  0.86046  1.0000
  F   F3        1.0  0.25522  0.70534  0.75210  1.0000
  F   F4        1.0  0.87668  0.23018  0.19207  1.0000
  F   F5        1.0  0.74478  0.70534  0.25210  1.0000
  F   F6        1.0  0.12332  0.23018  0.69207  1.0000
  F   F7        1.0  0.99004  0.74691  0.72149  1.0000
  F   F8        1.0  0.00996  0.74691  0.22149  1.0000
  Sb  Sb1       1.0  0.42024  0.93547  0.11065  1.0000
  Sb  Sb2       1.0  0.57976  0.93547  0.61065  1.0000
  Sb  Sb3       1.0  0.86680  0.02631  0.94653  1.0000
  Sb  Sb4       1.0  0.13320  0.02631  0.44653  1.0000
