data_image0
_chemical_formula_structural       Sb6Hg16
_chemical_formula_sum              "Sb6 Hg16"
_cell_length_a       6.92318
_cell_length_b       6.83401
_cell_length_c       14.3821
_cell_angle_alpha    74.8507
_cell_angle_beta     90
_cell_angle_gamma    90

_space_group_name_H-M_alt    "P 1"
_space_group_IT_number       1

loop_
  _space_group_symop_operation_xyz
  'x, y, z'

loop_
  _atom_site_type_symbol
  _atom_site_label
  _atom_site_symmetry_multiplicity
  _atom_site_fract_x
  _atom_site_fract_y
  _atom_site_fract_z
  _atom_site_occupancy
  Sb  Sb1       1.0  0.51348  0.73538  0.73877  1.0000
  Sb  Sb2       1.0  0.48652  0.26462  0.26123  1.0000
  Sb  Sb3       1.0  0.50000  0.00000  0.00000  1.0000
  Sb  Sb4       1.0  0.01348  0.26462  0.76123  1.0000
  Sb  Sb5       1.0  0.98652  0.73538  0.23877  1.0000
  Sb  Sb6       1.0  0.00000  0.00000  0.50000  1.0000
  Hg  Hg1       1.0  0.57192  0.68990  0.18294  1.0000
  Hg  Hg2       1.0  0.67398  0.16443  0.66099  1.0000
  Hg  Hg3       1.0  0.75914  0.71959  0.92835  1.0000
  Hg  Hg4       1.0  0.64424  0.27659  0.44611  1.0000
  Hg  Hg5       1.0  0.85576  0.27659  0.94611  1.0000
  Hg  Hg6       1.0  0.82602  0.16443  0.16099  1.0000
  Hg  Hg7       1.0  0.74086  0.71959  0.42835  1.0000
  Hg  Hg8       1.0  0.92808  0.68990  0.68294  1.0000
  Hg  Hg9       1.0  0.17398  0.83557  0.83901  1.0000
  Hg  Hg10      1.0  0.14424  0.72341  0.05389  1.0000
  Hg  Hg11      1.0  0.25914  0.28041  0.57165  1.0000
  Hg  Hg12      1.0  0.07192  0.31010  0.31706  1.0000
  Hg  Hg13      1.0  0.24086  0.28041  0.07165  1.0000
  Hg  Hg14      1.0  0.42808  0.31010  0.81706  1.0000
  Hg  Hg15      1.0  0.32602  0.83557  0.33901  1.0000
  Hg  Hg16      1.0  0.35576  0.72341  0.55389  1.0000
