data_image0
_chemical_formula_structural       Sb9Hg13
_chemical_formula_sum              "Sb9 Hg13"
_cell_length_a       9.08638
_cell_length_b       9.08638
_cell_length_c       9.4119
_cell_angle_alpha    71.8955
_cell_angle_beta     71.8955
_cell_angle_gamma    68.4029

_space_group_name_H-M_alt    "P 1"
_space_group_IT_number       1

loop_
  _space_group_symop_operation_xyz
  'x, y, z'

loop_
  _atom_site_type_symbol
  _atom_site_label
  _atom_site_symmetry_multiplicity
  _atom_site_fract_x
  _atom_site_fract_y
  _atom_site_fract_z
  _atom_site_occupancy
  Sb  Sb1       1.0  0.32374  0.32374  0.27715  1.0000
  Sb  Sb2       1.0  0.66187  0.24320  0.30447  1.0000
  Sb  Sb3       1.0  0.81969  0.81969  0.07171  1.0000
  Sb  Sb4       1.0  0.18031  0.18031  0.92829  1.0000
  Sb  Sb5       1.0  0.50000  0.50000  0.50000  1.0000
  Sb  Sb6       1.0  0.67626  0.67626  0.72285  1.0000
  Sb  Sb7       1.0  0.24320  0.66187  0.30447  1.0000
  Sb  Sb8       1.0  0.75680  0.33813  0.69553  1.0000
  Sb  Sb9       1.0  0.33813  0.75680  0.69553  1.0000
  Hg  Hg1       1.0  0.63681  0.05222  0.65499  1.0000
  Hg  Hg2       1.0  0.05222  0.63681  0.65499  1.0000
  Hg  Hg3       1.0  0.58829  0.58829  0.08461  1.0000
  Hg  Hg4       1.0  0.74055  0.74055  0.39385  1.0000
  Hg  Hg5       1.0  0.36319  0.94778  0.34501  1.0000
  Hg  Hg6       1.0  0.82596  0.17404  0.00000  1.0000
  Hg  Hg7       1.0  0.25945  0.25945  0.60615  1.0000
  Hg  Hg8       1.0  0.41171  0.41171  0.91539  1.0000
  Hg  Hg9       1.0  0.17404  0.82596  0.00000  1.0000
  Hg  Hg10      1.0  0.00000  0.00000  0.50000  1.0000
  Hg  Hg11      1.0  0.94778  0.36319  0.34501  1.0000
  Hg  Hg12      1.0  1.00000  0.50000  0.00000  1.0000
  Hg  Hg13      1.0  0.50000  0.00000  0.00000  1.0000
