data_image0
_chemical_formula_structural       Sb4F8
_chemical_formula_sum              "Sb4 F8"
_cell_length_a       7.03464
_cell_length_b       7.03464
_cell_length_c       7.03464
_cell_angle_alpha    60
_cell_angle_beta     60
_cell_angle_gamma    60

_space_group_name_H-M_alt    "P 1"
_space_group_IT_number       1

loop_
  _space_group_symop_operation_xyz
  'x, y, z'

loop_
  _atom_site_type_symbol
  _atom_site_label
  _atom_site_symmetry_multiplicity
  _atom_site_fract_x
  _atom_site_fract_y
  _atom_site_fract_z
  _atom_site_occupancy
  Sb  Sb1       1.0  0.62500  0.62500  0.62500  1.0000
  Sb  Sb2       1.0  0.12500  0.62500  0.62500  1.0000
  Sb  Sb3       1.0  0.62500  0.12500  0.62500  1.0000
  Sb  Sb4       1.0  0.62500  0.62500  0.12500  1.0000
  F   F1        1.0  0.87116  0.38651  0.87116  1.0000
  F   F2        1.0  0.37884  0.37884  0.86349  1.0000
  F   F3        1.0  0.86349  0.37884  0.37884  1.0000
  F   F4        1.0  0.37884  0.37884  0.37884  1.0000
  F   F5        1.0  0.38651  0.87116  0.87116  1.0000
  F   F6        1.0  0.87116  0.87116  0.87116  1.0000
  F   F7        1.0  0.87116  0.87116  0.38651  1.0000
  F   F8        1.0  0.37884  0.86349  0.37884  1.0000
