data_image0
_chemical_formula_structural       Sb4Hg12
_chemical_formula_sum              "Sb4 Hg12"
_cell_length_a       11.6482
_cell_length_b       11.6482
_cell_length_c       6.11784
_cell_angle_alpha    90
_cell_angle_beta     90
_cell_angle_gamma    147.625

_space_group_name_H-M_alt    "P 1"
_space_group_IT_number       1

loop_
  _space_group_symop_operation_xyz
  'x, y, z'

loop_
  _atom_site_type_symbol
  _atom_site_label
  _atom_site_symmetry_multiplicity
  _atom_site_fract_x
  _atom_site_fract_y
  _atom_site_fract_z
  _atom_site_occupancy
  Sb  Sb1       1.0  0.65646  0.34354  0.00000  1.0000
  Sb  Sb2       1.0  0.34354  0.65646  0.00000  1.0000
  Sb  Sb3       1.0  0.15646  0.84354  0.50000  1.0000
  Sb  Sb4       1.0  0.84354  0.15646  0.50000  1.0000
  Hg  Hg1       1.0  0.67743  0.67743  0.17973  1.0000
  Hg  Hg2       1.0  0.17743  0.17743  0.32027  1.0000
  Hg  Hg3       1.0  0.82257  0.82257  0.67973  1.0000
  Hg  Hg4       1.0  0.39108  0.60892  0.50000  1.0000
  Hg  Hg5       1.0  0.99485  0.49485  0.75000  1.0000
  Hg  Hg6       1.0  0.89108  0.10892  0.00000  1.0000
  Hg  Hg7       1.0  0.00515  0.50515  0.25000  1.0000
  Hg  Hg8       1.0  0.32257  0.32257  0.82027  1.0000
  Hg  Hg9       1.0  0.60892  0.39108  0.50000  1.0000
  Hg  Hg10      1.0  0.10892  0.89108  0.00000  1.0000
  Hg  Hg11      1.0  0.50515  0.00515  0.25000  1.0000
  Hg  Hg12      1.0  0.49485  0.99485  0.75000  1.0000
