data_image0
_chemical_formula_structural       Hg10Sb6
_chemical_formula_sum              "Hg10 Sb6"
_cell_length_a       9.50717
_cell_length_b       9.50717
_cell_length_c       9.50717
_cell_angle_alpha    132.863
_cell_angle_beta     132.863
_cell_angle_gamma    68.8701

_space_group_name_H-M_alt    "P 1"
_space_group_IT_number       1

loop_
  _space_group_symop_operation_xyz
  'x, y, z'

loop_
  _atom_site_type_symbol
  _atom_site_label
  _atom_site_symmetry_multiplicity
  _atom_site_fract_x
  _atom_site_fract_y
  _atom_site_fract_z
  _atom_site_occupancy
  Hg  Hg1       1.0  0.50465  0.67609  0.50000  1.0000
  Hg  Hg2       1.0  0.49535  0.32391  0.50000  1.0000
  Hg  Hg3       1.0  0.50000  0.50000  0.00000  1.0000
  Hg  Hg4       1.0  0.00000  0.00000  0.00000  1.0000
  Hg  Hg5       1.0  0.17609  0.00465  0.50000  1.0000
  Hg  Hg6       1.0  0.00465  0.50465  0.82856  1.0000
  Hg  Hg7       1.0  0.67609  0.17609  0.17144  1.0000
  Hg  Hg8       1.0  0.32391  0.82391  0.82856  1.0000
  Hg  Hg9       1.0  0.99535  0.49535  0.17144  1.0000
  Hg  Hg10      1.0  0.82391  0.99535  0.50000  1.0000
  Sb  Sb1       1.0  0.86434  0.63566  0.50000  1.0000
  Sb  Sb2       1.0  0.63566  0.13566  0.77131  1.0000
  Sb  Sb3       1.0  0.36434  0.86434  0.22869  1.0000
  Sb  Sb4       1.0  0.13566  0.36434  0.50000  1.0000
  Sb  Sb5       1.0  0.25000  0.25000  0.00000  1.0000
  Sb  Sb6       1.0  0.75000  0.75000  0.00000  1.0000
