data_image0
_chemical_formula_structural       Sb2F2
_chemical_formula_sum              "Sb2 F2"
_cell_length_a       3.29714
_cell_length_b       3.29714
_cell_length_c       8.83148
_cell_angle_alpha    90
_cell_angle_beta     90
_cell_angle_gamma    120

_space_group_name_H-M_alt    "P 1"
_space_group_IT_number       1

loop_
  _space_group_symop_operation_xyz
  'x, y, z'

loop_
  _atom_site_type_symbol
  _atom_site_label
  _atom_site_symmetry_multiplicity
  _atom_site_fract_x
  _atom_site_fract_y
  _atom_site_fract_z
  _atom_site_occupancy
  Sb  Sb1       1.0  0.66667  0.33333  0.57260  1.0000
  Sb  Sb2       1.0  0.33333  0.66667  0.07260  1.0000
  F   F1        1.0  0.66667  0.33333  0.80326  1.0000
  F   F2        1.0  0.33333  0.66667  0.30326  1.0000
