data_image0
_chemical_formula_structural       Sb10F6
_chemical_formula_sum              "Sb10 F6"
_cell_length_a       8.08126
_cell_length_b       8.08126
_cell_length_c       8.08126
_cell_angle_alpha    99.0234
_cell_angle_beta     99.0234
_cell_angle_gamma    133.34

_space_group_name_H-M_alt    "P 1"
_space_group_IT_number       1

loop_
  _space_group_symop_operation_xyz
  'x, y, z'

loop_
  _atom_site_type_symbol
  _atom_site_label
  _atom_site_symmetry_multiplicity
  _atom_site_fract_x
  _atom_site_fract_y
  _atom_site_fract_z
  _atom_site_occupancy
  Sb  Sb1       1.0  0.49184  0.27893  0.77077  1.0000
  Sb  Sb2       1.0  0.50816  0.72107  0.22923  1.0000
  Sb  Sb3       1.0  0.72107  0.49184  0.21291  1.0000
  Sb  Sb4       1.0  0.27893  0.50816  0.78709  1.0000
  Sb  Sb5       1.0  0.00816  0.77893  0.78709  1.0000
  Sb  Sb6       1.0  0.22107  0.00816  0.22923  1.0000
  Sb  Sb7       1.0  0.25000  0.75000  0.50000  1.0000
  Sb  Sb8       1.0  0.75000  0.25000  0.50000  1.0000
  Sb  Sb9       1.0  0.99184  0.22107  0.21291  1.0000
  Sb  Sb10      1.0  0.77893  0.99184  0.77077  1.0000
  F   F1        1.0  0.78213  0.28213  0.06425  1.0000
  F   F2        1.0  0.71787  0.78213  0.50000  1.0000
  F   F3        1.0  0.28213  0.21787  0.50000  1.0000
  F   F4        1.0  0.21787  0.71787  0.93575  1.0000
  F   F5        1.0  0.75000  0.75000  0.00000  1.0000
  F   F6        1.0  0.25000  0.25000  0.00000  1.0000
