data_image0
_chemical_formula_structural       Sb6Hg4
_chemical_formula_sum              "Sb6 Hg4"
_cell_length_a       6.22367
_cell_length_b       6.22367
_cell_length_c       8.111
_cell_angle_alpha    90
_cell_angle_beta     90
_cell_angle_gamma    90

_space_group_name_H-M_alt    "P 1"
_space_group_IT_number       1

loop_
  _space_group_symop_operation_xyz
  'x, y, z'

loop_
  _atom_site_type_symbol
  _atom_site_label
  _atom_site_symmetry_multiplicity
  _atom_site_fract_x
  _atom_site_fract_y
  _atom_site_fract_z
  _atom_site_occupancy
  Sb  Sb1       1.0  0.00000  0.00000  0.00000  1.0000
  Sb  Sb2       1.0  0.50000  0.50000  0.00000  1.0000
  Sb  Sb3       1.0  0.16856  0.66856  0.76334  1.0000
  Sb  Sb4       1.0  0.33144  0.16856  0.23666  1.0000
  Sb  Sb5       1.0  0.66856  0.83144  0.23666  1.0000
  Sb  Sb6       1.0  0.83144  0.33144  0.76334  1.0000
  Hg  Hg1       1.0  0.17933  0.67933  0.36106  1.0000
  Hg  Hg2       1.0  0.32067  0.17933  0.63894  1.0000
  Hg  Hg3       1.0  0.67933  0.82067  0.63894  1.0000
  Hg  Hg4       1.0  0.82067  0.32067  0.36106  1.0000
