data_image0
_chemical_formula_structural       Hg3Sb3
_chemical_formula_sum              "Hg3 Sb3"
_cell_length_a       4.21806
_cell_length_b       4.21806
_cell_length_c       10.7483
_cell_angle_alpha    90
_cell_angle_beta     90
_cell_angle_gamma    120

_space_group_name_H-M_alt    "P 1"
_space_group_IT_number       1

loop_
  _space_group_symop_operation_xyz
  'x, y, z'

loop_
  _atom_site_type_symbol
  _atom_site_label
  _atom_site_symmetry_multiplicity
  _atom_site_fract_x
  _atom_site_fract_y
  _atom_site_fract_z
  _atom_site_occupancy
  Hg  Hg1       1.0  0.33317  0.33317  0.00000  1.0000
  Hg  Hg2       1.0  1.00000  0.66683  0.66667  1.0000
  Hg  Hg3       1.0  0.66683  1.00000  0.33333  1.0000
  Sb  Sb1       1.0  0.32846  0.32846  0.50000  1.0000
  Sb  Sb2       1.0  1.00000  0.67154  0.16667  1.0000
  Sb  Sb3       1.0  0.67154  1.00000  0.83333  1.0000
