data_image0
_chemical_formula_structural       Sb6F16
_chemical_formula_sum              "Sb6 F16"
_cell_length_a       5.88548
_cell_length_b       6.57751
_cell_length_c       12.6872
_cell_angle_alpha    70.0325
_cell_angle_beta     90
_cell_angle_gamma    90

_space_group_name_H-M_alt    "P 1"
_space_group_IT_number       1

loop_
  _space_group_symop_operation_xyz
  'x, y, z'

loop_
  _atom_site_type_symbol
  _atom_site_label
  _atom_site_symmetry_multiplicity
  _atom_site_fract_x
  _atom_site_fract_y
  _atom_site_fract_z
  _atom_site_occupancy
  Sb  Sb1       1.0  0.47359  0.74779  0.75335  1.0000
  Sb  Sb2       1.0  0.52641  0.25221  0.24665  1.0000
  Sb  Sb3       1.0  0.50000  0.00000  0.00000  1.0000
  Sb  Sb4       1.0  0.97359  0.25221  0.74665  1.0000
  Sb  Sb5       1.0  0.02641  0.74779  0.25335  1.0000
  Sb  Sb6       1.0  0.00000  0.00000  0.50000  1.0000
  F   F1        1.0  0.68649  0.53143  0.18358  1.0000
  F   F2        1.0  0.69575  0.11004  0.71555  1.0000
  F   F3        1.0  0.55761  0.74953  0.91890  1.0000
  F   F4        1.0  0.71320  0.19932  0.40253  1.0000
  F   F5        1.0  0.78680  0.19932  0.90253  1.0000
  F   F6        1.0  0.80425  0.11004  0.21555  1.0000
  F   F7        1.0  0.94239  0.74953  0.41890  1.0000
  F   F8        1.0  0.81351  0.53143  0.68358  1.0000
  F   F9        1.0  0.19575  0.88996  0.78445  1.0000
  F   F10       1.0  0.21320  0.80068  0.09747  1.0000
  F   F11       1.0  0.05761  0.25047  0.58110  1.0000
  F   F12       1.0  0.18649  0.46857  0.31642  1.0000
  F   F13       1.0  0.44239  0.25047  0.08110  1.0000
  F   F14       1.0  0.31351  0.46857  0.81642  1.0000
  F   F15       1.0  0.30425  0.88996  0.28445  1.0000
  F   F16       1.0  0.28680  0.80068  0.59747  1.0000
