data_image0
_chemical_formula_structural       Sb4F4
_chemical_formula_sum              "Sb4 F4"
_cell_length_a       5.45106
_cell_length_b       5.45106
_cell_length_c       5.45106
_cell_angle_alpha    90
_cell_angle_beta     90
_cell_angle_gamma    90

_space_group_name_H-M_alt    "P 1"
_space_group_IT_number       1

loop_
  _space_group_symop_operation_xyz
  'x, y, z'

loop_
  _atom_site_type_symbol
  _atom_site_label
  _atom_site_symmetry_multiplicity
  _atom_site_fract_x
  _atom_site_fract_y
  _atom_site_fract_z
  _atom_site_occupancy
  Sb  Sb1       1.0  0.88380  0.61620  0.38380  1.0000
  Sb  Sb2       1.0  0.61620  0.38380  0.88380  1.0000
  Sb  Sb3       1.0  0.38380  0.88380  0.61620  1.0000
  Sb  Sb4       1.0  0.11620  0.11620  0.11620  1.0000
  F   F1        1.0  0.10591  0.39409  0.60591  1.0000
  F   F2        1.0  0.39409  0.60591  0.10591  1.0000
  F   F3        1.0  0.60591  0.10591  0.39409  1.0000
  F   F4        1.0  0.89409  0.89409  0.89409  1.0000
