data_image0
_chemical_formula_structural       Sb16Hg24
_chemical_formula_sum              "Sb16 Hg24"
_cell_length_a       9.71299
_cell_length_b       7.62816
_cell_length_c       16.0019
_cell_angle_alpha    90
_cell_angle_beta     90
_cell_angle_gamma    90

_space_group_name_H-M_alt    "P 1"
_space_group_IT_number       1

loop_
  _space_group_symop_operation_xyz
  'x, y, z'

loop_
  _atom_site_type_symbol
  _atom_site_label
  _atom_site_symmetry_multiplicity
  _atom_site_fract_x
  _atom_site_fract_y
  _atom_site_fract_z
  _atom_site_occupancy
  Sb  Sb1       1.0  0.85576  0.75000  0.96497  1.0000
  Sb  Sb2       1.0  0.35576  0.25000  0.53503  1.0000
  Sb  Sb3       1.0  0.14424  0.25000  0.03503  1.0000
  Sb  Sb4       1.0  0.64424  0.75000  0.46497  1.0000
  Sb  Sb5       1.0  0.34982  0.75000  0.87041  1.0000
  Sb  Sb6       1.0  0.84982  0.25000  0.62959  1.0000
  Sb  Sb7       1.0  0.65018  0.25000  0.12959  1.0000
  Sb  Sb8       1.0  0.15018  0.75000  0.37041  1.0000
  Sb  Sb9       1.0  0.64399  0.45364  0.29042  1.0000
  Sb  Sb10      1.0  0.14399  0.54636  0.20958  1.0000
  Sb  Sb11      1.0  0.35601  0.95364  0.70958  1.0000
  Sb  Sb12      1.0  0.85601  0.04636  0.79042  1.0000
  Sb  Sb13      1.0  0.35601  0.54636  0.70958  1.0000
  Sb  Sb14      1.0  0.85601  0.45364  0.79042  1.0000
  Sb  Sb15      1.0  0.64399  0.04636  0.29042  1.0000
  Sb  Sb16      1.0  0.14399  0.95364  0.20958  1.0000
  Hg  Hg1       1.0  0.84618  0.75000  0.24384  1.0000
  Hg  Hg2       1.0  0.34618  0.25000  0.25616  1.0000
  Hg  Hg3       1.0  0.15382  0.25000  0.75616  1.0000
  Hg  Hg4       1.0  0.65382  0.75000  0.74384  1.0000
  Hg  Hg5       1.0  0.49386  0.75000  0.19188  1.0000
  Hg  Hg6       1.0  0.99386  0.25000  0.30812  1.0000
  Hg  Hg7       1.0  0.50614  0.25000  0.80812  1.0000
  Hg  Hg8       1.0  0.00614  0.75000  0.69188  1.0000
  Hg  Hg9       1.0  0.89271  0.01697  0.09448  1.0000
  Hg  Hg10      1.0  0.39271  0.98303  0.40552  1.0000
  Hg  Hg11      1.0  0.10729  0.51697  0.90552  1.0000
  Hg  Hg12      1.0  0.60729  0.48303  0.59448  1.0000
  Hg  Hg13      1.0  0.10729  0.98303  0.90552  1.0000
  Hg  Hg14      1.0  0.60729  0.01697  0.59448  1.0000
  Hg  Hg15      1.0  0.89271  0.48303  0.09448  1.0000
  Hg  Hg16      1.0  0.39271  0.51697  0.40552  1.0000
  Hg  Hg17      1.0  0.38395  0.99819  0.06111  1.0000
  Hg  Hg18      1.0  0.88395  0.00181  0.43889  1.0000
  Hg  Hg19      1.0  0.61605  0.49819  0.93889  1.0000
  Hg  Hg20      1.0  0.11605  0.50181  0.56111  1.0000
  Hg  Hg21      1.0  0.61605  0.00181  0.93889  1.0000
  Hg  Hg22      1.0  0.11605  0.99819  0.56111  1.0000
  Hg  Hg23      1.0  0.38395  0.50181  0.06111  1.0000
  Hg  Hg24      1.0  0.88395  0.49819  0.43889  1.0000
