data_image0
_chemical_formula_structural       Sb4I6
_chemical_formula_sum              "Sb4 I6"
_cell_length_a       8.59478
_cell_length_b       8.59478
_cell_length_c       8.59478
_cell_angle_alpha    130.253
_cell_angle_beta     106.593
_cell_angle_gamma    93.9145

_space_group_name_H-M_alt    "P 1"
_space_group_IT_number       1

loop_
  _space_group_symop_operation_xyz
  'x, y, z'

loop_
  _atom_site_type_symbol
  _atom_site_label
  _atom_site_symmetry_multiplicity
  _atom_site_fract_x
  _atom_site_fract_y
  _atom_site_fract_z
  _atom_site_occupancy
  Sb  Sb1       1.0  0.73158  0.48203  0.24956  1.0000
  Sb  Sb2       1.0  0.26842  0.51797  0.75044  1.0000
  Sb  Sb3       1.0  0.76753  0.01797  0.74956  1.0000
  Sb  Sb4       1.0  0.23247  0.98203  0.25044  1.0000
  I   I1        1.0  0.43660  0.79792  0.63868  1.0000
  I   I2        1.0  0.56340  0.20208  0.36132  1.0000
  I   I3        1.0  0.15924  0.29792  0.86132  1.0000
  I   I4        1.0  0.84076  0.70208  0.13868  1.0000
  I   I5        1.0  0.00000  0.75000  0.75000  1.0000
  I   I6        1.0  0.00000  0.25000  0.25000  1.0000
