data_image0
_chemical_formula_structural       Sb2F3
_chemical_formula_sum              "Sb2 F3"
_cell_length_a       3.20802
_cell_length_b       3.20802
_cell_length_c       9.94571
_cell_angle_alpha    90
_cell_angle_beta     90
_cell_angle_gamma    120

_space_group_name_H-M_alt    "P 1"
_space_group_IT_number       1

loop_
  _space_group_symop_operation_xyz
  'x, y, z'

loop_
  _atom_site_type_symbol
  _atom_site_label
  _atom_site_symmetry_multiplicity
  _atom_site_fract_x
  _atom_site_fract_y
  _atom_site_fract_z
  _atom_site_occupancy
  Sb  Sb1       1.0  0.66667  0.33333  0.29579  1.0000
  Sb  Sb2       1.0  0.33333  0.66667  0.70421  1.0000
  F   F1        1.0  0.00000  0.00000  0.50000  1.0000
  F   F2        1.0  0.00000  0.00000  0.13881  1.0000
  F   F3        1.0  0.00000  0.00000  0.86119  1.0000
