data_image0
_chemical_formula_structural       SbF2
_chemical_formula_sum              "Sb1 F2"
_cell_length_a       3.56348
_cell_length_b       3.56348
_cell_length_c       5.3921
_cell_angle_alpha    109.419
_cell_angle_beta     109.419
_cell_angle_gamma    64.0308

_space_group_name_H-M_alt    "P 1"
_space_group_IT_number       1

loop_
  _space_group_symop_operation_xyz
  'x, y, z'

loop_
  _atom_site_type_symbol
  _atom_site_label
  _atom_site_symmetry_multiplicity
  _atom_site_fract_x
  _atom_site_fract_y
  _atom_site_fract_z
  _atom_site_occupancy
  Sb  Sb1       1.0  0.76146  0.23854  0.50000  1.0000
  F   F1        1.0  0.22423  0.98570  0.79613  1.0000
  F   F2        1.0  0.01430  0.77577  0.20387  1.0000
