data_image0
_chemical_formula_structural       Hg4Sb2
_chemical_formula_sum              "Hg4 Sb2"
_cell_length_a       6.04057
_cell_length_b       6.04057
_cell_length_c       6.04057
_cell_angle_alpha    107.68
_cell_angle_beta     107.68
_cell_angle_gamma    113.115

_space_group_name_H-M_alt    "P 1"
_space_group_IT_number       1

loop_
  _space_group_symop_operation_xyz
  'x, y, z'

loop_
  _atom_site_type_symbol
  _atom_site_label
  _atom_site_symmetry_multiplicity
  _atom_site_fract_x
  _atom_site_fract_y
  _atom_site_fract_z
  _atom_site_occupancy
  Hg  Hg1       1.0  0.35213  0.85213  0.20425  1.0000
  Hg  Hg2       1.0  0.14787  0.35213  0.50000  1.0000
  Hg  Hg3       1.0  0.85213  0.64787  0.50000  1.0000
  Hg  Hg4       1.0  0.64787  0.14787  0.79575  1.0000
  Sb  Sb1       1.0  0.75000  0.75000  0.00000  1.0000
  Sb  Sb2       1.0  0.25000  0.25000  0.00000  1.0000
