data_image0
_chemical_formula_structural       I6Sb2
_chemical_formula_sum              "I6 Sb2"
_cell_length_a       4.06385
_cell_length_b       8.42962
_cell_length_c       12.7235
_cell_angle_alpha    90
_cell_angle_beta     90
_cell_angle_gamma    90

_space_group_name_H-M_alt    "P 1"
_space_group_IT_number       1

loop_
  _space_group_symop_operation_xyz
  'x, y, z'

loop_
  _atom_site_type_symbol
  _atom_site_label
  _atom_site_symmetry_multiplicity
  _atom_site_fract_x
  _atom_site_fract_y
  _atom_site_fract_z
  _atom_site_occupancy
  I   I1        1.0  0.00000  0.27627  0.34216  1.0000
  I   I2        1.0  0.00000  0.27627  0.65784  1.0000
  I   I3        1.0  0.50000  0.72373  0.15784  1.0000
  I   I4        1.0  0.50000  0.72373  0.84216  1.0000
  I   I5        1.0  0.00000  0.86266  0.50000  1.0000
  I   I6        1.0  0.50000  0.13734  0.00000  1.0000
  Sb  Sb1       1.0  0.00000  0.86228  0.00000  1.0000
  Sb  Sb2       1.0  0.50000  0.13772  0.50000  1.0000
