data_image0
_chemical_formula_structural       Sb4Hg8
_chemical_formula_sum              "Sb4 Hg8"
_cell_length_a       9.38368
_cell_length_b       9.38368
_cell_length_c       13.0687
_cell_angle_alpha    48.0243
_cell_angle_beta     48.0243
_cell_angle_gamma    23.9421

_space_group_name_H-M_alt    "P 1"
_space_group_IT_number       1

loop_
  _space_group_symop_operation_xyz
  'x, y, z'

loop_
  _atom_site_type_symbol
  _atom_site_label
  _atom_site_symmetry_multiplicity
  _atom_site_fract_x
  _atom_site_fract_y
  _atom_site_fract_z
  _atom_site_occupancy
  Sb  Sb1       1.0  0.75195  0.75195  0.83061  1.0000
  Sb  Sb2       1.0  0.24805  0.24805  0.16939  1.0000
  Sb  Sb3       1.0  0.40796  0.40796  0.34310  1.0000
  Sb  Sb4       1.0  0.59204  0.59204  0.65690  1.0000
  Hg  Hg1       1.0  0.05129  0.05129  0.05241  1.0000
  Hg  Hg2       1.0  0.94871  0.94871  0.94759  1.0000
  Hg  Hg3       1.0  0.91456  0.91456  0.51281  1.0000
  Hg  Hg4       1.0  0.08544  0.08544  0.48719  1.0000
  Hg  Hg5       1.0  0.62231  0.62231  0.17880  1.0000
  Hg  Hg6       1.0  0.37769  0.37769  0.82120  1.0000
  Hg  Hg7       1.0  0.20254  0.20254  0.69607  1.0000
  Hg  Hg8       1.0  0.79746  0.79746  0.30393  1.0000
