data_image0
_chemical_formula_structural       Sb2Hg4
_chemical_formula_sum              "Sb2 Hg4"
_cell_length_a       6.06008
_cell_length_b       6.06008
_cell_length_c       6.06008
_cell_angle_alpha    111.688
_cell_angle_beta     111.688
_cell_angle_gamma    105.123

_space_group_name_H-M_alt    "P 1"
_space_group_IT_number       1

loop_
  _space_group_symop_operation_xyz
  'x, y, z'

loop_
  _atom_site_type_symbol
  _atom_site_label
  _atom_site_symmetry_multiplicity
  _atom_site_fract_x
  _atom_site_fract_y
  _atom_site_fract_z
  _atom_site_occupancy
  Sb  Sb1       1.0  0.25000  0.25000  0.00000  1.0000
  Sb  Sb2       1.0  0.75000  0.75000  0.00000  1.0000
  Hg  Hg1       1.0  0.65910  0.15910  0.81820  1.0000
  Hg  Hg2       1.0  0.34090  0.84090  0.18180  1.0000
  Hg  Hg3       1.0  0.84090  0.65910  0.50000  1.0000
  Hg  Hg4       1.0  0.15910  0.34090  0.50000  1.0000
