data_image0
_chemical_formula_structural       Hg12Sb4
_chemical_formula_sum              "Hg12 Sb4"
_cell_length_a       8.48391
_cell_length_b       8.48391
_cell_length_c       7.29883
_cell_angle_alpha    90
_cell_angle_beta     90
_cell_angle_gamma    90

_space_group_name_H-M_alt    "P 1"
_space_group_IT_number       1

loop_
  _space_group_symop_operation_xyz
  'x, y, z'

loop_
  _atom_site_type_symbol
  _atom_site_label
  _atom_site_symmetry_multiplicity
  _atom_site_fract_x
  _atom_site_fract_y
  _atom_site_fract_z
  _atom_site_occupancy
  Hg  Hg1       1.0  0.50000  0.00000  0.00000  1.0000
  Hg  Hg2       1.0  0.50000  0.00000  0.50000  1.0000
  Hg  Hg3       1.0  0.00000  0.50000  0.00000  1.0000
  Hg  Hg4       1.0  0.00000  0.50000  0.50000  1.0000
  Hg  Hg5       1.0  0.63078  0.36922  0.71308  1.0000
  Hg  Hg6       1.0  0.86922  0.86922  0.78692  1.0000
  Hg  Hg7       1.0  0.13078  0.13078  0.78692  1.0000
  Hg  Hg8       1.0  0.36922  0.63078  0.71308  1.0000
  Hg  Hg9       1.0  0.36922  0.63078  0.28692  1.0000
  Hg  Hg10      1.0  0.63078  0.36922  0.28692  1.0000
  Hg  Hg11      1.0  0.86922  0.86922  0.21308  1.0000
  Hg  Hg12      1.0  0.13078  0.13078  0.21308  1.0000
  Sb  Sb1       1.0  0.79839  0.20161  0.00000  1.0000
  Sb  Sb2       1.0  0.70161  0.70161  0.50000  1.0000
  Sb  Sb3       1.0  0.29839  0.29839  0.50000  1.0000
  Sb  Sb4       1.0  0.20161  0.79839  0.00000  1.0000
