data_image0
_chemical_formula_structural       Hg10Sb4
_chemical_formula_sum              "Hg10 Sb4"
_cell_length_a       9.65649
_cell_length_b       9.65649
_cell_length_c       8.1314
_cell_angle_alpha    58.9265
_cell_angle_beta     58.9265
_cell_angle_gamma    37.4357

_space_group_name_H-M_alt    "P 1"
_space_group_IT_number       1

loop_
  _space_group_symop_operation_xyz
  'x, y, z'

loop_
  _atom_site_type_symbol
  _atom_site_label
  _atom_site_symmetry_multiplicity
  _atom_site_fract_x
  _atom_site_fract_y
  _atom_site_fract_z
  _atom_site_occupancy
  Hg  Hg1       1.0  0.24319  0.75681  0.00000  1.0000
  Hg  Hg2       1.0  0.75681  0.24319  0.00000  1.0000
  Hg  Hg3       1.0  0.58569  0.58569  0.25678  1.0000
  Hg  Hg4       1.0  0.41431  0.41431  0.74322  1.0000
  Hg  Hg5       1.0  0.06213  0.06213  0.60191  1.0000
  Hg  Hg6       1.0  0.93787  0.93787  0.39809  1.0000
  Hg  Hg7       1.0  0.47088  0.97185  0.76920  1.0000
  Hg  Hg8       1.0  0.02815  0.52912  0.23080  1.0000
  Hg  Hg9       1.0  0.97185  0.47088  0.76920  1.0000
  Hg  Hg10      1.0  0.52912  0.02815  0.23080  1.0000
  Sb  Sb1       1.0  0.14441  0.14441  0.16243  1.0000
  Sb  Sb2       1.0  0.85559  0.85559  0.83757  1.0000
  Sb  Sb3       1.0  0.62909  0.62909  0.60592  1.0000
  Sb  Sb4       1.0  0.37091  0.37091  0.39408  1.0000
