data_image0
_chemical_formula_structural       Hg4Sb4
_chemical_formula_sum              "Hg4 Sb4"
_cell_length_a       5.99026
_cell_length_b       5.99026
_cell_length_c       5.99026
_cell_angle_alpha    90
_cell_angle_beta     90
_cell_angle_gamma    90

_space_group_name_H-M_alt    "P 1"
_space_group_IT_number       1

loop_
  _space_group_symop_operation_xyz
  'x, y, z'

loop_
  _atom_site_type_symbol
  _atom_site_label
  _atom_site_symmetry_multiplicity
  _atom_site_fract_x
  _atom_site_fract_y
  _atom_site_fract_z
  _atom_site_occupancy
  Hg  Hg1       1.0  0.84390  0.65610  0.34390  1.0000
  Hg  Hg2       1.0  0.65610  0.34390  0.84390  1.0000
  Hg  Hg3       1.0  0.34390  0.84390  0.65610  1.0000
  Hg  Hg4       1.0  0.15610  0.15610  0.15610  1.0000
  Sb  Sb1       1.0  0.15277  0.34723  0.65277  1.0000
  Sb  Sb2       1.0  0.34723  0.65277  0.15277  1.0000
  Sb  Sb3       1.0  0.65277  0.15277  0.34723  1.0000
  Sb  Sb4       1.0  0.84723  0.84723  0.84723  1.0000
