data_image0
_chemical_formula_structural       Sb2F6
_chemical_formula_sum              "Sb2 F6"
_cell_length_a       4.10466
_cell_length_b       4.88103
_cell_length_c       4.88271
_cell_angle_alpha    90
_cell_angle_beta     90
_cell_angle_gamma    90

_space_group_name_H-M_alt    "P 1"
_space_group_IT_number       1

loop_
  _space_group_symop_operation_xyz
  'x, y, z'

loop_
  _atom_site_type_symbol
  _atom_site_label
  _atom_site_symmetry_multiplicity
  _atom_site_fract_x
  _atom_site_fract_y
  _atom_site_fract_z
  _atom_site_occupancy
  Sb  Sb1       1.0  0.50000  0.76671  0.50000  1.0000
  Sb  Sb2       1.0  0.00000  0.23329  0.00000  1.0000
  F   F1        1.0  0.50000  0.12970  0.75243  1.0000
  F   F2        1.0  0.50000  0.12970  0.24757  1.0000
  F   F3        1.0  0.00000  0.87030  0.74757  1.0000
  F   F4        1.0  0.00000  0.87030  0.25243  1.0000
  F   F5        1.0  0.00000  0.40893  0.50000  1.0000
  F   F6        1.0  0.50000  0.59107  0.00000  1.0000
