data_image0
_chemical_formula_structural       SbHg2
_chemical_formula_sum              "Sb1 Hg2"
_cell_length_a       5.65239
_cell_length_b       5.65239
_cell_length_c       5.65239
_cell_angle_alpha    138.305
_cell_angle_beta     138.305
_cell_angle_gamma    60.4369

_space_group_name_H-M_alt    "P 1"
_space_group_IT_number       1

loop_
  _space_group_symop_operation_xyz
  'x, y, z'

loop_
  _atom_site_type_symbol
  _atom_site_label
  _atom_site_symmetry_multiplicity
  _atom_site_fract_x
  _atom_site_fract_y
  _atom_site_fract_z
  _atom_site_occupancy
  Sb  Sb1       1.0  0.00000  0.00000  0.00000  1.0000
  Hg  Hg1       1.0  0.66651  0.66651  0.00000  1.0000
  Hg  Hg2       1.0  0.33349  0.33349  0.00000  1.0000
