data_image0
_chemical_formula_structural       Sb2Hg4
_chemical_formula_sum              "Sb2 Hg4"
_cell_length_a       6.05611
_cell_length_b       6.05611
_cell_length_c       6.05611
_cell_angle_alpha    106.926
_cell_angle_beta     106.926
_cell_angle_gamma    114.69

_space_group_name_H-M_alt    "P 1"
_space_group_IT_number       1

loop_
  _space_group_symop_operation_xyz
  'x, y, z'

loop_
  _atom_site_type_symbol
  _atom_site_label
  _atom_site_symmetry_multiplicity
  _atom_site_fract_x
  _atom_site_fract_y
  _atom_site_fract_z
  _atom_site_occupancy
  Sb  Sb1       1.0  0.75000  0.75000  0.00000  1.0000
  Sb  Sb2       1.0  0.25000  0.25000  0.00000  1.0000
  Hg  Hg1       1.0  0.35336  0.14664  0.50000  1.0000
  Hg  Hg2       1.0  0.85336  0.35336  0.20672  1.0000
  Hg  Hg3       1.0  0.64664  0.85336  0.50000  1.0000
  Hg  Hg4       1.0  0.14664  0.64664  0.79328  1.0000
