data_image0
_chemical_formula_structural       Hg8Sb4
_chemical_formula_sum              "Hg8 Sb4"
_cell_length_a       5.14924
_cell_length_b       9.49682
_cell_length_c       8.46905
_cell_angle_alpha    60.4215
_cell_angle_beta     90
_cell_angle_gamma    90

_space_group_name_H-M_alt    "P 1"
_space_group_IT_number       1

loop_
  _space_group_symop_operation_xyz
  'x, y, z'

loop_
  _atom_site_type_symbol
  _atom_site_label
  _atom_site_symmetry_multiplicity
  _atom_site_fract_x
  _atom_site_fract_y
  _atom_site_fract_z
  _atom_site_occupancy
  Hg  Hg1       1.0  0.22601  0.00915  0.38833  1.0000
  Hg  Hg2       1.0  0.72601  0.99085  0.11167  1.0000
  Hg  Hg3       1.0  0.77399  0.99085  0.61167  1.0000
  Hg  Hg4       1.0  0.27399  0.00915  0.88833  1.0000
  Hg  Hg5       1.0  0.79977  0.36378  0.67832  1.0000
  Hg  Hg6       1.0  0.29977  0.63622  0.82168  1.0000
  Hg  Hg7       1.0  0.20023  0.63622  0.32168  1.0000
  Hg  Hg8       1.0  0.70023  0.36378  0.17832  1.0000
  Sb  Sb1       1.0  0.08964  0.27711  0.00227  1.0000
  Sb  Sb2       1.0  0.58964  0.72289  0.49773  1.0000
  Sb  Sb3       1.0  0.91036  0.72289  0.99773  1.0000
  Sb  Sb4       1.0  0.41036  0.27711  0.50227  1.0000
