data_image0
_chemical_formula_structural       Sb4I8
_chemical_formula_sum              "Sb4 I8"
_cell_length_a       9.66648
_cell_length_b       9.66648
_cell_length_c       9.66648
_cell_angle_alpha    60
_cell_angle_beta     60
_cell_angle_gamma    60

_space_group_name_H-M_alt    "P 1"
_space_group_IT_number       1

loop_
  _space_group_symop_operation_xyz
  'x, y, z'

loop_
  _atom_site_type_symbol
  _atom_site_label
  _atom_site_symmetry_multiplicity
  _atom_site_fract_x
  _atom_site_fract_y
  _atom_site_fract_z
  _atom_site_occupancy
  Sb  Sb1       1.0  0.62500  0.62500  0.62500  1.0000
  Sb  Sb2       1.0  0.12500  0.62500  0.62500  1.0000
  Sb  Sb3       1.0  0.62500  0.12500  0.62500  1.0000
  Sb  Sb4       1.0  0.62500  0.62500  0.12500  1.0000
  I   I1        1.0  0.85635  0.43095  0.85635  1.0000
  I   I2        1.0  0.39365  0.39365  0.81905  1.0000
  I   I3        1.0  0.81905  0.39365  0.39365  1.0000
  I   I4        1.0  0.39365  0.39365  0.39365  1.0000
  I   I5        1.0  0.43095  0.85635  0.85635  1.0000
  I   I6        1.0  0.85635  0.85635  0.85635  1.0000
  I   I7        1.0  0.85635  0.85635  0.43095  1.0000
  I   I8        1.0  0.39365  0.81905  0.39365  1.0000
