data_image0
_chemical_formula_structural       Sb8I16
_chemical_formula_sum              "Sb8 I16"
_cell_length_a       10.5496
_cell_length_b       10.5496
_cell_length_c       13.4606
_cell_angle_alpha    90
_cell_angle_beta     90
_cell_angle_gamma    114.781

_space_group_name_H-M_alt    "P 1"
_space_group_IT_number       1

loop_
  _space_group_symop_operation_xyz
  'x, y, z'

loop_
  _atom_site_type_symbol
  _atom_site_label
  _atom_site_symmetry_multiplicity
  _atom_site_fract_x
  _atom_site_fract_y
  _atom_site_fract_z
  _atom_site_occupancy
  Sb  Sb1       1.0  0.17014  0.17014  0.85186  1.0000
  Sb  Sb2       1.0  0.32986  0.32986  0.35186  1.0000
  Sb  Sb3       1.0  0.67014  0.67014  0.64814  1.0000
  Sb  Sb4       1.0  0.82986  0.82986  0.14814  1.0000
  Sb  Sb5       1.0  0.40896  0.59104  0.50000  1.0000
  Sb  Sb6       1.0  0.09104  0.90896  0.00000  1.0000
  Sb  Sb7       1.0  0.59104  0.40896  0.50000  1.0000
  Sb  Sb8       1.0  0.90896  0.09104  0.00000  1.0000
  I   I1        1.0  0.37590  0.61771  0.27419  1.0000
  I   I2        1.0  0.12410  0.88229  0.77419  1.0000
  I   I3        1.0  0.11771  0.87590  0.22581  1.0000
  I   I4        1.0  0.38229  0.62410  0.72581  1.0000
  I   I5        1.0  0.62410  0.38229  0.72581  1.0000
  I   I6        1.0  0.87590  0.11771  0.22581  1.0000
  I   I7        1.0  0.88229  0.12410  0.77419  1.0000
  I   I8        1.0  0.61771  0.37590  0.27419  1.0000
  I   I9        1.0  0.14671  0.38887  0.98826  1.0000
  I   I10       1.0  0.35329  0.11113  0.48826  1.0000
  I   I11       1.0  0.88887  0.64671  0.51174  1.0000
  I   I12       1.0  0.61113  0.85329  0.01174  1.0000
  I   I13       1.0  0.85329  0.61113  0.01174  1.0000
  I   I14       1.0  0.64671  0.88887  0.51174  1.0000
  I   I15       1.0  0.11113  0.35329  0.48826  1.0000
  I   I16       1.0  0.38887  0.14671  0.98826  1.0000
