data_image0
_chemical_formula_structural       I8Sb4
_chemical_formula_sum              "I8 Sb4"
_cell_length_a       8.31649
_cell_length_b       10.1529
_cell_length_c       12.9354
_cell_angle_alpha    41.1921
_cell_angle_beta     90
_cell_angle_gamma    90

_space_group_name_H-M_alt    "P 1"
_space_group_IT_number       1

loop_
  _space_group_symop_operation_xyz
  'x, y, z'

loop_
  _atom_site_type_symbol
  _atom_site_label
  _atom_site_symmetry_multiplicity
  _atom_site_fract_x
  _atom_site_fract_y
  _atom_site_fract_z
  _atom_site_occupancy
  I   I1        1.0  0.23068  0.13235  0.26356  1.0000
  I   I2        1.0  0.73068  0.86765  0.23644  1.0000
  I   I3        1.0  0.76932  0.86765  0.73644  1.0000
  I   I4        1.0  0.26932  0.13235  0.76356  1.0000
  I   I5        1.0  0.75575  0.38722  0.73802  1.0000
  I   I6        1.0  0.25575  0.61278  0.76198  1.0000
  I   I7        1.0  0.24425  0.61278  0.26198  1.0000
  I   I8        1.0  0.74425  0.38722  0.23802  1.0000
  Sb  Sb1       1.0  0.03250  0.35646  0.00280  1.0000
  Sb  Sb2       1.0  0.53250  0.64354  0.49720  1.0000
  Sb  Sb3       1.0  0.96750  0.64354  0.99720  1.0000
  Sb  Sb4       1.0  0.46750  0.35646  0.50280  1.0000
