data_image0
_chemical_formula_structural       Sb2I6
_chemical_formula_sum              "Sb2 I6"
_cell_length_a       6.01009
_cell_length_b       4.54826
_cell_length_c       14.5365
_cell_angle_alpha    90
_cell_angle_beta     90
_cell_angle_gamma    90

_space_group_name_H-M_alt    "P 1"
_space_group_IT_number       1

loop_
  _space_group_symop_operation_xyz
  'x, y, z'

loop_
  _atom_site_type_symbol
  _atom_site_label
  _atom_site_symmetry_multiplicity
  _atom_site_fract_x
  _atom_site_fract_y
  _atom_site_fract_z
  _atom_site_occupancy
  Sb  Sb1       1.0  0.50000  0.54728  0.50000  1.0000
  Sb  Sb2       1.0  0.00000  0.45272  0.00000  1.0000
  I   I1        1.0  0.50000  0.13709  0.64792  1.0000
  I   I2        1.0  0.50000  0.13709  0.35208  1.0000
  I   I3        1.0  0.00000  0.86291  0.85208  1.0000
  I   I4        1.0  0.00000  0.86291  0.14792  1.0000
  I   I5        1.0  0.00000  0.65909  0.50000  1.0000
  I   I6        1.0  0.50000  0.34091  0.00000  1.0000
