data_image0
_chemical_formula_structural       SbI4
_chemical_formula_sum              "Sb1 I4"
_cell_length_a       9.25023
_cell_length_b       9.25023
_cell_length_c       9.25023
_cell_angle_alpha    92.1194
_cell_angle_beta     92.1194
_cell_angle_gamma    157.825

_space_group_name_H-M_alt    "P 1"
_space_group_IT_number       1

loop_
  _space_group_symop_operation_xyz
  'x, y, z'

loop_
  _atom_site_type_symbol
  _atom_site_label
  _atom_site_symmetry_multiplicity
  _atom_site_fract_x
  _atom_site_fract_y
  _atom_site_fract_z
  _atom_site_occupancy
  Sb  Sb1       1.0  0.00000  0.00000  0.00000  1.0000
  I   I1        1.0  0.47415  0.29212  0.76627  1.0000
  I   I2        1.0  0.52585  0.70788  0.23373  1.0000
  I   I3        1.0  0.70788  0.47415  0.18203  1.0000
  I   I4        1.0  0.29212  0.52585  0.81797  1.0000
