data_image0
_chemical_formula_structural       SbI4
_chemical_formula_sum              "Sb1 I4"
_cell_length_a       12.0113
_cell_length_b       12.0113
_cell_length_c       12.0113
_cell_angle_alpha    20.9439
_cell_angle_beta     20.9439
_cell_angle_gamma    20.9439

_space_group_name_H-M_alt    "P 1"
_space_group_IT_number       1

loop_
  _space_group_symop_operation_xyz
  'x, y, z'

loop_
  _atom_site_type_symbol
  _atom_site_label
  _atom_site_symmetry_multiplicity
  _atom_site_fract_x
  _atom_site_fract_y
  _atom_site_fract_z
  _atom_site_occupancy
  Sb  Sb1       1.0  0.00000  0.00000  0.00000  1.0000
  I   I1        1.0  0.61261  0.61261  0.61261  1.0000
  I   I2        1.0  0.20481  0.20481  0.20481  1.0000
  I   I3        1.0  0.79519  0.79519  0.79519  1.0000
  I   I4        1.0  0.38739  0.38739  0.38739  1.0000
