data_image0
_chemical_formula_structural       SbI4
_chemical_formula_sum              "Sb1 I4"
_cell_length_a       9.96505
_cell_length_b       9.96505
_cell_length_c       9.96505
_cell_angle_alpha    91.8105
_cell_angle_beta     91.8105
_cell_angle_gamma    159.523

_space_group_name_H-M_alt    "P 1"
_space_group_IT_number       1

loop_
  _space_group_symop_operation_xyz
  'x, y, z'

loop_
  _atom_site_type_symbol
  _atom_site_label
  _atom_site_symmetry_multiplicity
  _atom_site_fract_x
  _atom_site_fract_y
  _atom_site_fract_z
  _atom_site_occupancy
  Sb  Sb1       1.0  0.00000  0.00000  0.00000  1.0000
  I   I1        1.0  0.69155  0.53117  0.22272  1.0000
  I   I2        1.0  0.46883  0.69155  0.16037  1.0000
  I   I3        1.0  0.53117  0.30845  0.83963  1.0000
  I   I4        1.0  0.30845  0.46883  0.77728  1.0000
