data_image0
_chemical_formula_structural       Sb12N16
_chemical_formula_sum              "Sb12 N16"
_cell_length_a       8.4184
_cell_length_b       8.4184
_cell_length_c       8.14326
_cell_angle_alpha    90
_cell_angle_beta     90
_cell_angle_gamma    120

_space_group_name_H-M_alt    "P 1"
_space_group_IT_number       1

loop_
  _space_group_symop_operation_xyz
  'x, y, z'

loop_
  _atom_site_type_symbol
  _atom_site_label
  _atom_site_symmetry_multiplicity
  _atom_site_fract_x
  _atom_site_fract_y
  _atom_site_fract_z
  _atom_site_occupancy
  Sb  Sb1       1.0  0.59025  0.06198  0.79235  1.0000
  Sb  Sb2       1.0  0.47173  0.40975  0.79235  1.0000
  Sb  Sb3       1.0  0.93802  0.52827  0.79235  1.0000
  Sb  Sb4       1.0  0.40975  0.47173  0.29235  1.0000
  Sb  Sb5       1.0  0.52827  0.93802  0.29235  1.0000
  Sb  Sb6       1.0  0.06198  0.59025  0.29235  1.0000
  Sb  Sb7       1.0  0.06001  0.26861  0.02109  1.0000
  Sb  Sb8       1.0  0.20859  0.93999  0.02109  1.0000
  Sb  Sb9       1.0  0.73139  0.79141  0.02109  1.0000
  Sb  Sb10      1.0  0.93999  0.20859  0.52109  1.0000
  Sb  Sb11      1.0  0.79141  0.73139  0.52109  1.0000
  Sb  Sb12      1.0  0.26861  0.06001  0.52109  1.0000
  N   N1        1.0  0.04451  0.65504  0.03035  1.0000
  N   N2        1.0  0.61054  0.95549  0.03035  1.0000
  N   N3        1.0  0.34496  0.38946  0.03035  1.0000
  N   N4        1.0  0.95549  0.61054  0.53035  1.0000
  N   N5        1.0  0.38946  0.34496  0.53035  1.0000
  N   N6        1.0  0.65504  0.04451  0.53035  1.0000
  N   N7        1.0  0.98612  0.30487  0.77656  1.0000
  N   N8        1.0  0.31875  0.01388  0.77656  1.0000
  N   N9        1.0  0.69513  0.68125  0.77656  1.0000
  N   N10       1.0  0.01388  0.31875  0.27656  1.0000
  N   N11       1.0  0.68125  0.69513  0.27656  1.0000
  N   N12       1.0  0.30487  0.98612  0.27656  1.0000
  N   N13       1.0  0.00000  0.00000  0.01903  1.0000
  N   N14       1.0  0.00000  0.00000  0.51903  1.0000
  N   N15       1.0  0.33333  0.66667  0.33436  1.0000
  N   N16       1.0  0.66667  0.33333  0.83436  1.0000
