data_image0
_chemical_formula_structural       Sb9I8
_chemical_formula_sum              "Sb9 I8"
_cell_length_a       10.4375
_cell_length_b       10.4375
_cell_length_c       10.4375
_cell_angle_alpha    60
_cell_angle_beta     60
_cell_angle_gamma    60

_space_group_name_H-M_alt    "P 1"
_space_group_IT_number       1

loop_
  _space_group_symop_operation_xyz
  'x, y, z'

loop_
  _atom_site_type_symbol
  _atom_site_label
  _atom_site_symmetry_multiplicity
  _atom_site_fract_x
  _atom_site_fract_y
  _atom_site_fract_z
  _atom_site_occupancy
  Sb  Sb1       1.0  0.50000  0.50000  0.50000  1.0000
  Sb  Sb2       1.0  0.90083  0.29751  0.90083  1.0000
  Sb  Sb3       1.0  0.09917  0.09917  0.70249  1.0000
  Sb  Sb4       1.0  0.70249  0.09917  0.09917  1.0000
  Sb  Sb5       1.0  0.09917  0.09917  0.09917  1.0000
  Sb  Sb6       1.0  0.29751  0.90083  0.90083  1.0000
  Sb  Sb7       1.0  0.90083  0.90083  0.90083  1.0000
  Sb  Sb8       1.0  0.90083  0.90083  0.29751  1.0000
  Sb  Sb9       1.0  0.09917  0.70249  0.09917  1.0000
  I   I1        1.0  0.75000  0.75000  0.75000  1.0000
  I   I2        1.0  0.25000  0.25000  0.25000  1.0000
  I   I3        1.0  0.29916  0.29916  0.70084  1.0000
  I   I4        1.0  0.29916  0.70084  0.70084  1.0000
  I   I5        1.0  0.70084  0.29916  0.29916  1.0000
  I   I6        1.0  0.29916  0.70084  0.29916  1.0000
  I   I7        1.0  0.70084  0.29916  0.70084  1.0000
  I   I8        1.0  0.70084  0.70084  0.29916  1.0000
