data_image0
_chemical_formula_structural       Sb3I4
_chemical_formula_sum              "Sb3 I4"
_cell_length_a       8.29308
_cell_length_b       8.29308
_cell_length_c       9.18985
_cell_angle_alpha    45.8248
_cell_angle_beta     45.8248
_cell_angle_gamma    50.8036

_space_group_name_H-M_alt    "P 1"
_space_group_IT_number       1

loop_
  _space_group_symop_operation_xyz
  'x, y, z'

loop_
  _atom_site_type_symbol
  _atom_site_label
  _atom_site_symmetry_multiplicity
  _atom_site_fract_x
  _atom_site_fract_y
  _atom_site_fract_z
  _atom_site_occupancy
  Sb  Sb1       1.0  0.00000  0.00000  0.00000  1.0000
  Sb  Sb2       1.0  0.29758  0.29758  0.63463  1.0000
  Sb  Sb3       1.0  0.70242  0.70242  0.36537  1.0000
  I   I1        1.0  0.13922  0.13922  0.52456  1.0000
  I   I2        1.0  0.86078  0.86078  0.47544  1.0000
  I   I3        1.0  0.63807  0.63807  0.14078  1.0000
  I   I4        1.0  0.36193  0.36193  0.85922  1.0000
