data_image0
_chemical_formula_structural       I10Sb6
_chemical_formula_sum              "I10 Sb6"
_cell_length_a       10.0066
_cell_length_b       10.0066
_cell_length_c       10.0066
_cell_angle_alpha    131.834
_cell_angle_beta     131.834
_cell_angle_gamma    70.491

_space_group_name_H-M_alt    "P 1"
_space_group_IT_number       1

loop_
  _space_group_symop_operation_xyz
  'x, y, z'

loop_
  _atom_site_type_symbol
  _atom_site_label
  _atom_site_symmetry_multiplicity
  _atom_site_fract_x
  _atom_site_fract_y
  _atom_site_fract_z
  _atom_site_occupancy
  I   I1        1.0  0.51387  0.68475  0.50000  1.0000
  I   I2        1.0  0.48613  0.31525  0.50000  1.0000
  I   I3        1.0  0.50000  0.50000  0.00000  1.0000
  I   I4        1.0  0.00000  0.00000  0.00000  1.0000
  I   I5        1.0  0.18475  0.01387  0.50000  1.0000
  I   I6        1.0  0.01387  0.51387  0.82912  1.0000
  I   I7        1.0  0.68475  0.18475  0.17088  1.0000
  I   I8        1.0  0.31525  0.81525  0.82912  1.0000
  I   I9        1.0  0.98613  0.48613  0.17088  1.0000
  I   I10       1.0  0.81525  0.98613  0.50000  1.0000
  Sb  Sb1       1.0  0.87227  0.62773  0.50000  1.0000
  Sb  Sb2       1.0  0.62773  0.12773  0.75545  1.0000
  Sb  Sb3       1.0  0.37227  0.87227  0.24455  1.0000
  Sb  Sb4       1.0  0.12773  0.37227  0.50000  1.0000
  Sb  Sb5       1.0  0.25000  0.25000  0.00000  1.0000
  Sb  Sb6       1.0  0.75000  0.75000  0.00000  1.0000
