data_image0
_chemical_formula_structural       I8Sb4
_chemical_formula_sum              "I8 Sb4"
_cell_length_a       9.94621
_cell_length_b       7.38029
_cell_length_c       8.56122
_cell_angle_alpha    72.2492
_cell_angle_beta     90
_cell_angle_gamma    90

_space_group_name_H-M_alt    "P 1"
_space_group_IT_number       1

loop_
  _space_group_symop_operation_xyz
  'x, y, z'

loop_
  _atom_site_type_symbol
  _atom_site_label
  _atom_site_symmetry_multiplicity
  _atom_site_fract_x
  _atom_site_fract_y
  _atom_site_fract_z
  _atom_site_occupancy
  I   I1        1.0  0.39057  0.21640  0.31800  1.0000
  I   I2        1.0  0.60943  0.21640  0.81800  1.0000
  I   I3        1.0  0.34230  0.75308  0.82140  1.0000
  I   I4        1.0  0.83808  0.27073  0.20926  1.0000
  I   I5        1.0  0.65770  0.75308  0.32140  1.0000
  I   I6        1.0  0.16192  0.27073  0.70926  1.0000
  I   I7        1.0  0.89068  0.81517  0.70708  1.0000
  I   I8        1.0  0.10932  0.81517  0.20708  1.0000
  Sb  Sb1       1.0  0.35640  0.98657  0.01814  1.0000
  Sb  Sb2       1.0  0.64360  0.98657  0.51814  1.0000
  Sb  Sb3       1.0  0.85418  0.04136  0.00942  1.0000
  Sb  Sb4       1.0  0.14582  0.04136  0.50942  1.0000
