data_image0
_chemical_formula_structural       Sb10I6
_chemical_formula_sum              "Sb10 I6"
_cell_length_a       9.61285
_cell_length_b       9.61285
_cell_length_c       9.61285
_cell_angle_alpha    98.7251
_cell_angle_beta     98.7251
_cell_angle_gamma    134.156

_space_group_name_H-M_alt    "P 1"
_space_group_IT_number       1

loop_
  _space_group_symop_operation_xyz
  'x, y, z'

loop_
  _atom_site_type_symbol
  _atom_site_label
  _atom_site_symmetry_multiplicity
  _atom_site_fract_x
  _atom_site_fract_y
  _atom_site_fract_z
  _atom_site_occupancy
  Sb  Sb1       1.0  0.51485  0.19743  0.71229  1.0000
  Sb  Sb2       1.0  0.48515  0.80257  0.28771  1.0000
  Sb  Sb3       1.0  0.80257  0.51485  0.31742  1.0000
  Sb  Sb4       1.0  0.19743  0.48515  0.68258  1.0000
  Sb  Sb5       1.0  0.98515  0.69743  0.68258  1.0000
  Sb  Sb6       1.0  0.30257  0.98515  0.28771  1.0000
  Sb  Sb7       1.0  0.25000  0.75000  0.50000  1.0000
  Sb  Sb8       1.0  0.75000  0.25000  0.50000  1.0000
  Sb  Sb9       1.0  0.01485  0.30257  0.31742  1.0000
  Sb  Sb10      1.0  0.69743  0.01485  0.71229  1.0000
  I   I1        1.0  0.76209  0.26209  0.02419  1.0000
  I   I2        1.0  0.73791  0.76209  0.50000  1.0000
  I   I3        1.0  0.26209  0.23791  0.50000  1.0000
  I   I4        1.0  0.23791  0.73791  0.97581  1.0000
  I   I5        1.0  0.75000  0.75000  0.00000  1.0000
  I   I6        1.0  0.25000  0.25000  0.00000  1.0000
