data_image0
_chemical_formula_structural       Sb6I20
_chemical_formula_sum              "Sb6 I20"
_cell_length_a       20.7547
_cell_length_b       20.7547
_cell_length_c       3.99887
_cell_angle_alpha    90
_cell_angle_beta     90
_cell_angle_gamma    120

_space_group_name_H-M_alt    "P 1"
_space_group_IT_number       1

loop_
  _space_group_symop_operation_xyz
  'x, y, z'

loop_
  _atom_site_type_symbol
  _atom_site_label
  _atom_site_symmetry_multiplicity
  _atom_site_fract_x
  _atom_site_fract_y
  _atom_site_fract_z
  _atom_site_occupancy
  Sb  Sb1       1.0  0.64037  0.75100  0.25000  1.0000
  Sb  Sb2       1.0  0.24900  0.88937  0.25000  1.0000
  Sb  Sb3       1.0  0.11063  0.35963  0.25000  1.0000
  Sb  Sb4       1.0  0.35963  0.24900  0.75000  1.0000
  Sb  Sb5       1.0  0.75100  0.11063  0.75000  1.0000
  Sb  Sb6       1.0  0.88937  0.64037  0.75000  1.0000
  I   I1        1.0  0.84787  0.08326  0.25000  1.0000
  I   I2        1.0  0.91674  0.76461  0.25000  1.0000
  I   I3        1.0  0.23539  0.15213  0.25000  1.0000
  I   I4        1.0  0.15213  0.91674  0.75000  1.0000
  I   I5        1.0  0.08326  0.23539  0.75000  1.0000
  I   I6        1.0  0.76461  0.84787  0.75000  1.0000
  I   I7        1.0  0.62635  0.01502  0.25000  1.0000
  I   I8        1.0  0.98498  0.61133  0.25000  1.0000
  I   I9        1.0  0.38867  0.37365  0.25000  1.0000
  I   I10       1.0  0.37365  0.98498  0.75000  1.0000
  I   I11       1.0  0.01502  0.38867  0.75000  1.0000
  I   I12       1.0  0.61133  0.62635  0.75000  1.0000
  I   I13       1.0  0.77688  0.23316  0.25000  1.0000
  I   I14       1.0  0.76684  0.54372  0.25000  1.0000
  I   I15       1.0  0.45628  0.22312  0.25000  1.0000
  I   I16       1.0  0.22312  0.76684  0.75000  1.0000
  I   I17       1.0  0.23316  0.45628  0.75000  1.0000
  I   I18       1.0  0.54372  0.77688  0.75000  1.0000
  I   I19       1.0  0.66667  0.33333  0.75000  1.0000
  I   I20       1.0  0.33333  0.66667  0.25000  1.0000
