data_image0
_chemical_formula_structural       Sb4I8
_chemical_formula_sum              "Sb4 I8"
_cell_length_a       13.8654
_cell_length_b       13.8654
_cell_length_c       9.8416
_cell_angle_alpha    90
_cell_angle_beta     90
_cell_angle_gamma    163.037

_space_group_name_H-M_alt    "P 1"
_space_group_IT_number       1

loop_
  _space_group_symop_operation_xyz
  'x, y, z'

loop_
  _atom_site_type_symbol
  _atom_site_label
  _atom_site_symmetry_multiplicity
  _atom_site_fract_x
  _atom_site_fract_y
  _atom_site_fract_z
  _atom_site_occupancy
  Sb  Sb1       1.0  0.50280  0.49720  0.85275  1.0000
  Sb  Sb2       1.0  0.49720  0.50280  0.35275  1.0000
  Sb  Sb3       1.0  0.18377  0.81623  0.09902  1.0000
  Sb  Sb4       1.0  0.81623  0.18377  0.59902  1.0000
  I   I1        1.0  0.98667  0.01333  0.09920  1.0000
  I   I2        1.0  0.01333  0.98667  0.59920  1.0000
  I   I3        1.0  0.12203  0.87797  0.87379  1.0000
  I   I4        1.0  0.87797  0.12203  0.37379  1.0000
  I   I5        1.0  0.27202  0.72798  0.96529  1.0000
  I   I6        1.0  0.72798  0.27202  0.46529  1.0000
  I   I7        1.0  0.59660  0.40340  0.29565  1.0000
  I   I8        1.0  0.40340  0.59660  0.79565  1.0000
