data_image0
_chemical_formula_structural       Sb4I12
_chemical_formula_sum              "Sb4 I12"
_cell_length_a       8.64043
_cell_length_b       8.64043
_cell_length_c       9.28768
_cell_angle_alpha    90
_cell_angle_beta     90
_cell_angle_gamma    111.829

_space_group_name_H-M_alt    "P 1"
_space_group_IT_number       1

loop_
  _space_group_symop_operation_xyz
  'x, y, z'

loop_
  _atom_site_type_symbol
  _atom_site_label
  _atom_site_symmetry_multiplicity
  _atom_site_fract_x
  _atom_site_fract_y
  _atom_site_fract_z
  _atom_site_occupancy
  Sb  Sb1       1.0  0.67909  0.32091  0.00000  1.0000
  Sb  Sb2       1.0  0.32091  0.67909  0.00000  1.0000
  Sb  Sb3       1.0  0.17909  0.82091  0.50000  1.0000
  Sb  Sb4       1.0  0.82091  0.17909  0.50000  1.0000
  I   I1        1.0  0.64019  0.64019  0.13030  1.0000
  I   I2        1.0  0.14019  0.14019  0.36970  1.0000
  I   I3        1.0  0.85981  0.85981  0.63030  1.0000
  I   I4        1.0  0.38009  0.61991  0.50000  1.0000
  I   I5        1.0  0.97339  0.47339  0.75000  1.0000
  I   I6        1.0  0.88009  0.11991  0.00000  1.0000
  I   I7        1.0  0.02661  0.52661  0.25000  1.0000
  I   I8        1.0  0.35981  0.35981  0.86970  1.0000
  I   I9        1.0  0.61991  0.38009  0.50000  1.0000
  I   I10       1.0  0.11991  0.88009  0.00000  1.0000
  I   I11       1.0  0.52661  0.02661  0.25000  1.0000
  I   I12       1.0  0.47339  0.97339  0.75000  1.0000
