data_image0
_chemical_formula_structural       N6Sb2
_chemical_formula_sum              "N6 Sb2"
_cell_length_a       4.41808
_cell_length_b       5.81926
_cell_length_c       5.63708
_cell_angle_alpha    90
_cell_angle_beta     90
_cell_angle_gamma    90

_space_group_name_H-M_alt    "P 1"
_space_group_IT_number       1

loop_
  _space_group_symop_operation_xyz
  'x, y, z'

loop_
  _atom_site_type_symbol
  _atom_site_label
  _atom_site_symmetry_multiplicity
  _atom_site_fract_x
  _atom_site_fract_y
  _atom_site_fract_z
  _atom_site_occupancy
  N   N1        1.0  0.00000  0.29668  0.36953  1.0000
  N   N2        1.0  0.00000  0.29668  0.63047  1.0000
  N   N3        1.0  0.50000  0.70332  0.13047  1.0000
  N   N4        1.0  0.50000  0.70332  0.86953  1.0000
  N   N5        1.0  0.00000  0.07682  0.50000  1.0000
  N   N6        1.0  0.50000  0.92318  0.00000  1.0000
  Sb  Sb1       1.0  0.00000  0.76762  0.00000  1.0000
  Sb  Sb2       1.0  0.50000  0.23238  0.50000  1.0000
