data_image0
_chemical_formula_structural       Sb9I13
_chemical_formula_sum              "Sb9 I13"
_cell_length_a       11.2717
_cell_length_b       11.2717
_cell_length_c       11.5154
_cell_angle_alpha    55.6596
_cell_angle_beta     55.6596
_cell_angle_gamma    69.1398

_space_group_name_H-M_alt    "P 1"
_space_group_IT_number       1

loop_
  _space_group_symop_operation_xyz
  'x, y, z'

loop_
  _atom_site_type_symbol
  _atom_site_label
  _atom_site_symmetry_multiplicity
  _atom_site_fract_x
  _atom_site_fract_y
  _atom_site_fract_z
  _atom_site_occupancy
  Sb  Sb1       1.0  0.23283  0.23283  0.10612  1.0000
  Sb  Sb2       1.0  0.88100  0.18215  0.19881  1.0000
  Sb  Sb3       1.0  0.83563  0.83563  0.05201  1.0000
  Sb  Sb4       1.0  0.16437  0.16437  0.94799  1.0000
  Sb  Sb5       1.0  0.50000  0.50000  0.50000  1.0000
  Sb  Sb6       1.0  0.76717  0.76717  0.89388  1.0000
  Sb  Sb7       1.0  0.18215  0.88100  0.19881  1.0000
  Sb  Sb8       1.0  0.81785  0.11900  0.80119  1.0000
  Sb  Sb9       1.0  0.11900  0.81785  0.80119  1.0000
  I   I1        1.0  0.52168  0.19182  0.57041  1.0000
  I   I2        1.0  0.19182  0.52168  0.57041  1.0000
  I   I3        1.0  0.55785  0.55785  0.17385  1.0000
  I   I4        1.0  0.86727  0.86727  0.33437  1.0000
  I   I5        1.0  0.47832  0.80818  0.42959  1.0000
  I   I6        1.0  0.74149  0.25851  0.00000  1.0000
  I   I7        1.0  0.13273  0.13273  0.66563  1.0000
  I   I8        1.0  0.44215  0.44215  0.82615  1.0000
  I   I9        1.0  0.25851  0.74149  0.00000  1.0000
  I   I10       1.0  0.00000  0.00000  0.50000  1.0000
  I   I11       1.0  0.80818  0.47832  0.42959  1.0000
  I   I12       1.0  0.00000  0.50000  0.00000  1.0000
  I   I13       1.0  0.50000  0.00000  0.00000  1.0000
