data_image0
_chemical_formula_structural       I2Sb6
_chemical_formula_sum              "I2 Sb6"
_cell_length_a       8.64825
_cell_length_b       8.64825
_cell_length_c       8.64825
_cell_angle_alpha    143.126
_cell_angle_beta     143.126
_cell_angle_gamma    53.1367

_space_group_name_H-M_alt    "P 1"
_space_group_IT_number       1

loop_
  _space_group_symop_operation_xyz
  'x, y, z'

loop_
  _atom_site_type_symbol
  _atom_site_label
  _atom_site_symmetry_multiplicity
  _atom_site_fract_x
  _atom_site_fract_y
  _atom_site_fract_z
  _atom_site_occupancy
  I   I1        1.0  0.87996  0.87996  0.00000  1.0000
  I   I2        1.0  0.12004  0.12004  0.00000  1.0000
  Sb  Sb1       1.0  0.00000  0.50000  0.50000  1.0000
  Sb  Sb2       1.0  0.50000  0.00000  0.50000  1.0000
  Sb  Sb3       1.0  0.75000  0.25000  0.50000  1.0000
  Sb  Sb4       1.0  0.25000  0.75000  0.50000  1.0000
  Sb  Sb5       1.0  0.63306  0.63306  0.00000  1.0000
  Sb  Sb6       1.0  0.36694  0.36694  0.00000  1.0000
