data_image0
_chemical_formula_structural       I10Sb4
_chemical_formula_sum              "I10 Sb4"
_cell_length_a       14.8463
_cell_length_b       14.8463
_cell_length_c       9.85768
_cell_angle_alpha    41.0775
_cell_angle_beta     41.0775
_cell_angle_gamma    35.1714

_space_group_name_H-M_alt    "P 1"
_space_group_IT_number       1

loop_
  _space_group_symop_operation_xyz
  'x, y, z'

loop_
  _atom_site_type_symbol
  _atom_site_label
  _atom_site_symmetry_multiplicity
  _atom_site_fract_x
  _atom_site_fract_y
  _atom_site_fract_z
  _atom_site_occupancy
  I   I1        1.0  0.28345  0.71655  0.00000  1.0000
  I   I2        1.0  0.71655  0.28345  0.00000  1.0000
  I   I3        1.0  0.58083  0.58083  0.45161  1.0000
  I   I4        1.0  0.41917  0.41917  0.54839  1.0000
  I   I5        1.0  0.10558  0.10558  0.38221  1.0000
  I   I6        1.0  0.89442  0.89442  0.61779  1.0000
  I   I7        1.0  0.44095  0.99464  0.80099  1.0000
  I   I8        1.0  0.00536  0.55905  0.19901  1.0000
  I   I9        1.0  0.99464  0.44096  0.80099  1.0000
  I   I10       1.0  0.55905  0.00536  0.19901  1.0000
  Sb  Sb1       1.0  0.10369  0.10369  0.10413  1.0000
  Sb  Sb2       1.0  0.89631  0.89631  0.89587  1.0000
  Sb  Sb3       1.0  0.62617  0.62617  0.61547  1.0000
  Sb  Sb4       1.0  0.37383  0.37383  0.38453  1.0000
