data_image0
_chemical_formula_structural       Sb6I10
_chemical_formula_sum              "Sb6 I10"
_cell_length_a       4.12609
_cell_length_b       10.6738
_cell_length_c       13.4444
_cell_angle_alpha    90
_cell_angle_beta     90
_cell_angle_gamma    90

_space_group_name_H-M_alt    "P 1"
_space_group_IT_number       1

loop_
  _space_group_symop_operation_xyz
  'x, y, z'

loop_
  _atom_site_type_symbol
  _atom_site_label
  _atom_site_symmetry_multiplicity
  _atom_site_fract_x
  _atom_site_fract_y
  _atom_site_fract_z
  _atom_site_occupancy
  Sb  Sb1       1.0  0.50000  0.37710  0.84398  1.0000
  Sb  Sb2       1.0  0.50000  0.87710  0.65602  1.0000
  Sb  Sb3       1.0  0.00000  0.50000  0.50000  1.0000
  Sb  Sb4       1.0  0.00000  0.00000  0.00000  1.0000
  Sb  Sb5       1.0  0.50000  0.62290  0.15602  1.0000
  Sb  Sb6       1.0  0.50000  0.12290  0.34398  1.0000
  I   I1        1.0  0.50000  0.68829  0.43035  1.0000
  I   I2        1.0  0.50000  0.31171  0.56965  1.0000
  I   I3        1.0  0.00000  0.13611  0.79252  1.0000
  I   I4        1.0  0.50000  0.81171  0.93035  1.0000
  I   I5        1.0  0.00000  0.36389  0.29252  1.0000
  I   I6        1.0  0.00000  0.86389  0.20748  1.0000
  I   I7        1.0  0.00000  0.63611  0.70748  1.0000
  I   I8        1.0  0.00000  0.50000  0.00000  1.0000
  I   I9        1.0  0.00000  0.00000  0.50000  1.0000
  I   I10       1.0  0.50000  0.18829  0.06965  1.0000
