data_image0
_chemical_formula_structural       Sb3I6
_chemical_formula_sum              "Sb3 I6"
_cell_length_a       6.02044
_cell_length_b       6.02044
_cell_length_c       9.58285
_cell_angle_alpha    90
_cell_angle_beta     90
_cell_angle_gamma    120

_space_group_name_H-M_alt    "P 1"
_space_group_IT_number       1

loop_
  _space_group_symop_operation_xyz
  'x, y, z'

loop_
  _atom_site_type_symbol
  _atom_site_label
  _atom_site_symmetry_multiplicity
  _atom_site_fract_x
  _atom_site_fract_y
  _atom_site_fract_z
  _atom_site_occupancy
  Sb  Sb1       1.0  0.00000  0.50000  0.16667  1.0000
  Sb  Sb2       1.0  0.50000  0.50000  0.83333  1.0000
  Sb  Sb3       1.0  0.50000  0.00000  0.50000  1.0000
  I   I1        1.0  0.82564  0.65128  0.50000  1.0000
  I   I2        1.0  0.17436  0.82564  0.83333  1.0000
  I   I3        1.0  0.65128  0.82564  0.16667  1.0000
  I   I4        1.0  0.17436  0.34872  0.50000  1.0000
  I   I5        1.0  0.82564  0.17436  0.83333  1.0000
  I   I6        1.0  0.34872  0.17436  0.16667  1.0000
