data_image0
_chemical_formula_structural       Sb16I24
_chemical_formula_sum              "Sb16 I24"
_cell_length_a       8.11666
_cell_length_b       9.86626
_cell_length_c       22.748
_cell_angle_alpha    90
_cell_angle_beta     90
_cell_angle_gamma    90

_space_group_name_H-M_alt    "P 1"
_space_group_IT_number       1

loop_
  _space_group_symop_operation_xyz
  'x, y, z'

loop_
  _atom_site_type_symbol
  _atom_site_label
  _atom_site_symmetry_multiplicity
  _atom_site_fract_x
  _atom_site_fract_y
  _atom_site_fract_z
  _atom_site_occupancy
  Sb  Sb1       1.0  0.71912  0.75000  0.06976  1.0000
  Sb  Sb2       1.0  0.21912  0.25000  0.43024  1.0000
  Sb  Sb3       1.0  0.28088  0.25000  0.93024  1.0000
  Sb  Sb4       1.0  0.78088  0.75000  0.56976  1.0000
  Sb  Sb5       1.0  0.38115  0.75000  0.06637  1.0000
  Sb  Sb6       1.0  0.88115  0.25000  0.43363  1.0000
  Sb  Sb7       1.0  0.61885  0.25000  0.93363  1.0000
  Sb  Sb8       1.0  0.11885  0.75000  0.56637  1.0000
  Sb  Sb9       1.0  0.55371  0.47504  0.31874  1.0000
  Sb  Sb10      1.0  0.05371  0.52496  0.18126  1.0000
  Sb  Sb11      1.0  0.44629  0.97504  0.68126  1.0000
  Sb  Sb12      1.0  0.94629  0.02496  0.81874  1.0000
  Sb  Sb13      1.0  0.44629  0.52496  0.68126  1.0000
  Sb  Sb14      1.0  0.94629  0.47504  0.81874  1.0000
  Sb  Sb15      1.0  0.55371  0.02496  0.31874  1.0000
  Sb  Sb16      1.0  0.05371  0.97504  0.18126  1.0000
  I   I1        1.0  0.80872  0.75000  0.22438  1.0000
  I   I2        1.0  0.30872  0.25000  0.27562  1.0000
  I   I3        1.0  0.19128  0.25000  0.77562  1.0000
  I   I4        1.0  0.69128  0.75000  0.72438  1.0000
  I   I5        1.0  0.29875  0.75000  0.22238  1.0000
  I   I6        1.0  0.79875  0.25000  0.27762  1.0000
  I   I7        1.0  0.70125  0.25000  0.77762  1.0000
  I   I8        1.0  0.20125  0.75000  0.72238  1.0000
  I   I9        1.0  0.79070  0.05259  0.09892  1.0000
  I   I10       1.0  0.29070  0.94741  0.40108  1.0000
  I   I11       1.0  0.20930  0.55259  0.90108  1.0000
  I   I12       1.0  0.70930  0.44741  0.59892  1.0000
  I   I13       1.0  0.20930  0.94741  0.90108  1.0000
  I   I14       1.0  0.70930  0.05259  0.59892  1.0000
  I   I15       1.0  0.79070  0.44741  0.09892  1.0000
  I   I16       1.0  0.29070  0.55259  0.40108  1.0000
  I   I17       1.0  0.30286  0.05256  0.09330  1.0000
  I   I18       1.0  0.80286  0.94744  0.40670  1.0000
  I   I19       1.0  0.69714  0.55256  0.90670  1.0000
  I   I20       1.0  0.19714  0.44744  0.59330  1.0000
  I   I21       1.0  0.69714  0.94744  0.90670  1.0000
  I   I22       1.0  0.19714  0.05256  0.59330  1.0000
  I   I23       1.0  0.30286  0.44744  0.09330  1.0000
  I   I24       1.0  0.80286  0.55256  0.40670  1.0000
