data_image0
_chemical_formula_structural       Sb6I16
_chemical_formula_sum              "Sb6 I16"
_cell_length_a       7.63027
_cell_length_b       8.26475
_cell_length_c       16.6719
_cell_angle_alpha    79.039
_cell_angle_beta     90
_cell_angle_gamma    90

_space_group_name_H-M_alt    "P 1"
_space_group_IT_number       1

loop_
  _space_group_symop_operation_xyz
  'x, y, z'

loop_
  _atom_site_type_symbol
  _atom_site_label
  _atom_site_symmetry_multiplicity
  _atom_site_fract_x
  _atom_site_fract_y
  _atom_site_fract_z
  _atom_site_occupancy
  Sb  Sb1       1.0  0.42942  0.74157  0.75985  1.0000
  Sb  Sb2       1.0  0.57058  0.25843  0.24015  1.0000
  Sb  Sb3       1.0  0.50000  0.00000  0.00000  1.0000
  Sb  Sb4       1.0  0.92942  0.25843  0.74015  1.0000
  Sb  Sb5       1.0  0.07058  0.74157  0.25985  1.0000
  Sb  Sb6       1.0  0.00000  0.00000  0.50000  1.0000
  I   I1        1.0  0.70988  0.58468  0.18737  1.0000
  I   I2        1.0  0.64055  0.09290  0.68014  1.0000
  I   I3        1.0  0.62444  0.72017  0.92054  1.0000
  I   I4        1.0  0.69739  0.21372  0.41942  1.0000
  I   I5        1.0  0.80261  0.21372  0.91942  1.0000
  I   I6        1.0  0.85945  0.09290  0.18014  1.0000
  I   I7        1.0  0.87556  0.72017  0.42054  1.0000
  I   I8        1.0  0.79012  0.58468  0.68737  1.0000
  I   I9        1.0  0.14055  0.90710  0.81986  1.0000
  I   I10       1.0  0.19739  0.78628  0.08058  1.0000
  I   I11       1.0  0.12444  0.27983  0.57946  1.0000
  I   I12       1.0  0.20988  0.41532  0.31263  1.0000
  I   I13       1.0  0.37556  0.27983  0.07946  1.0000
  I   I14       1.0  0.29012  0.41532  0.81263  1.0000
  I   I15       1.0  0.35945  0.90710  0.31986  1.0000
  I   I16       1.0  0.30261  0.78628  0.58058  1.0000
