data_image0
_chemical_formula_structural       Sb4I8
_chemical_formula_sum              "Sb4 I8"
_cell_length_a       12.961
_cell_length_b       12.961
_cell_length_c       16.1678
_cell_angle_alpha    44.5972
_cell_angle_beta     44.5972
_cell_angle_gamma    18.9425

_space_group_name_H-M_alt    "P 1"
_space_group_IT_number       1

loop_
  _space_group_symop_operation_xyz
  'x, y, z'

loop_
  _atom_site_type_symbol
  _atom_site_label
  _atom_site_symmetry_multiplicity
  _atom_site_fract_x
  _atom_site_fract_y
  _atom_site_fract_z
  _atom_site_occupancy
  Sb  Sb1       1.0  0.69831  0.69831  0.93417  1.0000
  Sb  Sb2       1.0  0.30169  0.30169  0.06583  1.0000
  Sb  Sb3       1.0  0.37023  0.37023  0.40675  1.0000
  Sb  Sb4       1.0  0.62977  0.62977  0.59325  1.0000
  I   I1        1.0  0.07836  0.07836  0.04603  1.0000
  I   I2        1.0  0.92164  0.92164  0.95397  1.0000
  I   I3        1.0  0.90635  0.90635  0.49288  1.0000
  I   I4        1.0  0.09365  0.09365  0.50712  1.0000
  I   I5        1.0  0.68358  0.68358  0.16505  1.0000
  I   I6        1.0  0.31642  0.31642  0.83495  1.0000
  I   I7        1.0  0.17408  0.17408  0.66766  1.0000
  I   I8        1.0  0.82592  0.82592  0.33234  1.0000
