data_image0
_chemical_formula_structural       I3Sb3
_chemical_formula_sum              "I3 Sb3"
_cell_length_a       5.14282
_cell_length_b       5.14282
_cell_length_c       8.63218
_cell_angle_alpha    90
_cell_angle_beta     90
_cell_angle_gamma    120

_space_group_name_H-M_alt    "P 1"
_space_group_IT_number       1

loop_
  _space_group_symop_operation_xyz
  'x, y, z'

loop_
  _atom_site_type_symbol
  _atom_site_label
  _atom_site_symmetry_multiplicity
  _atom_site_fract_x
  _atom_site_fract_y
  _atom_site_fract_z
  _atom_site_occupancy
  I   I1        1.0  0.33113  0.33113  0.00000  1.0000
  I   I2        1.0  0.00000  0.66887  0.66667  1.0000
  I   I3        1.0  0.66887  0.00000  0.33333  1.0000
  Sb  Sb1       1.0  0.33372  0.33372  0.50000  1.0000
  Sb  Sb2       1.0  0.00000  0.66628  0.16667  1.0000
  Sb  Sb3       1.0  0.66628  0.00000  0.83333  1.0000
