data_image0
_chemical_formula_structural       I4Sb2
_chemical_formula_sum              "I4 Sb2"
_cell_length_a       6.4886
_cell_length_b       6.4886
_cell_length_c       6.4886
_cell_angle_alpha    108.085
_cell_angle_beta     108.085
_cell_angle_gamma    112.28

_space_group_name_H-M_alt    "P 1"
_space_group_IT_number       1

loop_
  _space_group_symop_operation_xyz
  'x, y, z'

loop_
  _atom_site_type_symbol
  _atom_site_label
  _atom_site_symmetry_multiplicity
  _atom_site_fract_x
  _atom_site_fract_y
  _atom_site_fract_z
  _atom_site_occupancy
  I   I1        1.0  0.31363  0.81363  0.12726  1.0000
  I   I2        1.0  0.18637  0.31363  0.50000  1.0000
  I   I3        1.0  0.81363  0.68637  0.50000  1.0000
  I   I4        1.0  0.68637  0.18637  0.87274  1.0000
  Sb  Sb1       1.0  0.75000  0.75000  1.00000  1.0000
  Sb  Sb2       1.0  0.25000  0.25000  0.00000  1.0000
