data_image0
_chemical_formula_structural       Sb6S4
_chemical_formula_sum              "Sb6 S4"
_cell_length_a       7.14259
_cell_length_b       7.14259
_cell_length_c       5.58071
_cell_angle_alpha    90
_cell_angle_beta     90
_cell_angle_gamma    90

_space_group_name_H-M_alt    "P 1"
_space_group_IT_number       1

loop_
  _space_group_symop_operation_xyz
  'x, y, z'

loop_
  _atom_site_type_symbol
  _atom_site_label
  _atom_site_symmetry_multiplicity
  _atom_site_fract_x
  _atom_site_fract_y
  _atom_site_fract_z
  _atom_site_occupancy
  Sb  Sb1       1.0  0.00000  0.00000  0.00000  1.0000
  Sb  Sb2       1.0  0.50000  0.50000  0.00000  1.0000
  Sb  Sb3       1.0  0.14973  0.64973  0.74911  1.0000
  Sb  Sb4       1.0  0.35027  0.14973  0.25089  1.0000
  Sb  Sb5       1.0  0.64973  0.85027  0.25089  1.0000
  Sb  Sb6       1.0  0.85027  0.35027  0.74911  1.0000
  S   S1        1.0  0.20059  0.70059  0.33253  1.0000
  S   S2        1.0  0.29941  0.20059  0.66747  1.0000
  S   S3        1.0  0.70059  0.79941  0.66747  1.0000
  S   S4        1.0  0.79941  0.29941  0.33253  1.0000
