data_image0
_chemical_formula_structural       Sb8S16
_chemical_formula_sum              "Sb8 S16"
_cell_length_a       7.44315
_cell_length_b       7.44315
_cell_length_c       11.4761
_cell_angle_alpha    90
_cell_angle_beta     90
_cell_angle_gamma    89.7274

_space_group_name_H-M_alt    "P 1"
_space_group_IT_number       1

loop_
  _space_group_symop_operation_xyz
  'x, y, z'

loop_
  _atom_site_type_symbol
  _atom_site_label
  _atom_site_symmetry_multiplicity
  _atom_site_fract_x
  _atom_site_fract_y
  _atom_site_fract_z
  _atom_site_occupancy
  Sb  Sb1       1.0  0.27470  0.27470  0.69340  1.0000
  Sb  Sb2       1.0  0.22530  0.22530  0.19340  1.0000
  Sb  Sb3       1.0  0.77470  0.77470  0.80660  1.0000
  Sb  Sb4       1.0  0.72530  0.72530  0.30660  1.0000
  Sb  Sb5       1.0  0.14359  0.85641  0.50000  1.0000
  Sb  Sb6       1.0  0.35641  0.64359  0.00000  1.0000
  Sb  Sb7       1.0  0.85641  0.14359  0.50000  1.0000
  Sb  Sb8       1.0  0.64359  0.35641  0.00000  1.0000
  S   S1        1.0  0.36682  0.66516  0.24172  1.0000
  S   S2        1.0  0.13318  0.83484  0.74172  1.0000
  S   S3        1.0  0.16516  0.86682  0.25828  1.0000
  S   S4        1.0  0.33484  0.63318  0.75828  1.0000
  S   S5        1.0  0.63318  0.33484  0.75828  1.0000
  S   S6        1.0  0.86682  0.16516  0.25828  1.0000
  S   S7        1.0  0.83484  0.13318  0.74172  1.0000
  S   S8        1.0  0.66516  0.36682  0.24172  1.0000
  S   S9        1.0  0.10996  0.36964  0.00583  1.0000
  S   S10       1.0  0.39004  0.13036  0.50583  1.0000
  S   S11       1.0  0.86964  0.60996  0.49417  1.0000
  S   S12       1.0  0.63036  0.89004  0.99417  1.0000
  S   S13       1.0  0.89004  0.63036  0.99417  1.0000
  S   S14       1.0  0.60996  0.86964  0.49417  1.0000
  S   S15       1.0  0.13036  0.39004  0.50583  1.0000
  S   S16       1.0  0.36964  0.10996  0.00583  1.0000
