data_image0
_chemical_formula_structural       Sb2S4
_chemical_formula_sum              "Sb2 S4"
_cell_length_a       3.90096
_cell_length_b       5.96493
_cell_length_c       6.35893
_cell_angle_alpha    90
_cell_angle_beta     90
_cell_angle_gamma    90

_space_group_name_H-M_alt    "P 1"
_space_group_IT_number       1

loop_
  _space_group_symop_operation_xyz
  'x, y, z'

loop_
  _atom_site_type_symbol
  _atom_site_label
  _atom_site_symmetry_multiplicity
  _atom_site_fract_x
  _atom_site_fract_y
  _atom_site_fract_z
  _atom_site_occupancy
  Sb  Sb1       1.0  0.00000  0.00000  0.00000  1.0000
  Sb  Sb2       1.0  0.50000  0.50000  0.50000  1.0000
  S   S1        1.0  0.00000  0.25609  0.34299  1.0000
  S   S2        1.0  0.00000  0.74391  0.65701  1.0000
  S   S3        1.0  0.50000  0.75609  0.15701  1.0000
  S   S4        1.0  0.50000  0.24391  0.84299  1.0000
