data_image0
_chemical_formula_structural       SbS4
_chemical_formula_sum              "Sb1 S4"
_cell_length_a       6.67795
_cell_length_b       6.67795
_cell_length_c       6.67795
_cell_angle_alpha    93.0086
_cell_angle_beta     93.0086
_cell_angle_gamma    153.512

_space_group_name_H-M_alt    "P 1"
_space_group_IT_number       1

loop_
  _space_group_symop_operation_xyz
  'x, y, z'

loop_
  _atom_site_type_symbol
  _atom_site_label
  _atom_site_symmetry_multiplicity
  _atom_site_fract_x
  _atom_site_fract_y
  _atom_site_fract_z
  _atom_site_occupancy
  Sb  Sb1       1.0  0.00000  0.00000  0.00000  1.0000
  S   S1        1.0  0.66643  0.27392  0.94035  1.0000
  S   S2        1.0  0.33357  0.72608  0.05965  1.0000
  S   S3        1.0  0.72608  0.66643  0.39252  1.0000
  S   S4        1.0  0.27392  0.33357  0.60748  1.0000
