data_image0
_chemical_formula_structural       SbS2
_chemical_formula_sum              "Sb1 S2"
_cell_length_a       5.61513
_cell_length_b       5.61513
_cell_length_c       5.61513
_cell_angle_alpha    143.606
_cell_angle_beta     143.606
_cell_angle_gamma    52.4165

_space_group_name_H-M_alt    "P 1"
_space_group_IT_number       1

loop_
  _space_group_symop_operation_xyz
  'x, y, z'

loop_
  _atom_site_type_symbol
  _atom_site_label
  _atom_site_symmetry_multiplicity
  _atom_site_fract_x
  _atom_site_fract_y
  _atom_site_fract_z
  _atom_site_occupancy
  Sb  Sb1       1.0  0.00000  0.00000  0.00000  1.0000
  S   S1        1.0  0.64650  0.64650  0.00000  1.0000
  S   S2        1.0  0.35350  0.35350  0.00000  1.0000
