data_image0
_chemical_formula_structural       Sb4S12
_chemical_formula_sum              "Sb4 S12"
_cell_length_a       15.7848
_cell_length_b       15.7848
_cell_length_c       4.84994
_cell_angle_alpha    90
_cell_angle_beta     90
_cell_angle_gamma    161.824

_space_group_name_H-M_alt    "P 1"
_space_group_IT_number       1

loop_
  _space_group_symop_operation_xyz
  'x, y, z'

loop_
  _atom_site_type_symbol
  _atom_site_label
  _atom_site_symmetry_multiplicity
  _atom_site_fract_x
  _atom_site_fract_y
  _atom_site_fract_z
  _atom_site_occupancy
  Sb  Sb1       1.0  0.65937  0.34063  0.00000  1.0000
  Sb  Sb2       1.0  0.34063  0.65937  0.00000  1.0000
  Sb  Sb3       1.0  0.15937  0.84063  0.50000  1.0000
  Sb  Sb4       1.0  0.84063  0.15937  0.50000  1.0000
  S   S1        1.0  0.75012  0.75012  0.24992  1.0000
  S   S2        1.0  0.25012  0.25012  0.25008  1.0000
  S   S3        1.0  0.74988  0.74988  0.74992  1.0000
  S   S4        1.0  0.37774  0.62226  0.50000  1.0000
  S   S5        1.0  0.00000  0.50000  0.75000  1.0000
  S   S6        1.0  0.87774  0.12226  0.00000  1.0000
  S   S7        1.0  1.00000  0.50000  0.25000  1.0000
  S   S8        1.0  0.24988  0.24988  0.75008  1.0000
  S   S9        1.0  0.62226  0.37774  0.50000  1.0000
  S   S10       1.0  0.12226  0.87774  0.00000  1.0000
  S   S11       1.0  0.50000  1.00000  0.25000  1.0000
  S   S12       1.0  0.50000  0.00000  0.75000  1.0000
