data_image0
_chemical_formula_structural       Sb6S16
_chemical_formula_sum              "Sb6 S16"
_cell_length_a       6.39623
_cell_length_b       8.7024
_cell_length_c       14.1396
_cell_angle_alpha    47.2536
_cell_angle_beta     90
_cell_angle_gamma    90

_space_group_name_H-M_alt    "P 1"
_space_group_IT_number       1

loop_
  _space_group_symop_operation_xyz
  'x, y, z'

loop_
  _atom_site_type_symbol
  _atom_site_label
  _atom_site_symmetry_multiplicity
  _atom_site_fract_x
  _atom_site_fract_y
  _atom_site_fract_z
  _atom_site_occupancy
  Sb  Sb1       1.0  0.49108  0.75304  0.81553  1.0000
  Sb  Sb2       1.0  0.50892  0.24696  0.18447  1.0000
  Sb  Sb3       1.0  0.50000  0.00000  0.00000  1.0000
  Sb  Sb4       1.0  0.99108  0.24696  0.68447  1.0000
  Sb  Sb5       1.0  0.00892  0.75304  0.31553  1.0000
  Sb  Sb6       1.0  0.00000  0.00000  0.50000  1.0000
  S   S1        1.0  0.59335  0.73191  0.26064  1.0000
  S   S2        1.0  0.57418  0.16866  0.66636  1.0000
  S   S3        1.0  0.58786  0.67969  0.01585  1.0000
  S   S4        1.0  0.58668  0.13237  0.44050  1.0000
  S   S5        1.0  0.91332  0.13237  0.94050  1.0000
  S   S6        1.0  0.92582  0.16866  0.16636  1.0000
  S   S7        1.0  0.91214  0.67969  0.51585  1.0000
  S   S8        1.0  0.90665  0.73191  0.76064  1.0000
  S   S9        1.0  0.07418  0.83134  0.83364  1.0000
  S   S10       1.0  0.08668  0.86763  0.05950  1.0000
  S   S11       1.0  0.08786  0.32031  0.48415  1.0000
  S   S12       1.0  0.09335  0.26809  0.23936  1.0000
  S   S13       1.0  0.41214  0.32031  0.98415  1.0000
  S   S14       1.0  0.40665  0.26809  0.73936  1.0000
  S   S15       1.0  0.42582  0.83134  0.33364  1.0000
  S   S16       1.0  0.41332  0.86763  0.55950  1.0000
