data_image0
_chemical_formula_structural       Sb6S20
_chemical_formula_sum              "Sb6 S20"
_cell_length_a       18.8183
_cell_length_b       18.8183
_cell_length_c       3.43202
_cell_angle_alpha    90
_cell_angle_beta     90
_cell_angle_gamma    120

_space_group_name_H-M_alt    "P 1"
_space_group_IT_number       1

loop_
  _space_group_symop_operation_xyz
  'x, y, z'

loop_
  _atom_site_type_symbol
  _atom_site_label
  _atom_site_symmetry_multiplicity
  _atom_site_fract_x
  _atom_site_fract_y
  _atom_site_fract_z
  _atom_site_occupancy
  Sb  Sb1       1.0  0.54799  0.70781  0.25000  1.0000
  Sb  Sb2       1.0  0.29219  0.84018  0.25000  1.0000
  Sb  Sb3       1.0  0.15982  0.45201  0.25000  1.0000
  Sb  Sb4       1.0  0.45201  0.29219  0.75000  1.0000
  Sb  Sb5       1.0  0.70781  0.15982  0.75000  1.0000
  Sb  Sb6       1.0  0.84018  0.54799  0.75000  1.0000
  S   S1        1.0  0.79572  0.14807  0.25000  1.0000
  S   S2        1.0  0.85193  0.64766  0.25000  1.0000
  S   S3        1.0  0.35234  0.20428  0.25000  1.0000
  S   S4        1.0  0.20428  0.85193  0.75000  1.0000
  S   S5        1.0  0.14807  0.35234  0.75000  1.0000
  S   S6        1.0  0.64766  0.79572  0.75000  1.0000
  S   S7        1.0  0.51671  0.03684  0.25000  1.0000
  S   S8        1.0  0.96316  0.47987  0.25000  1.0000
  S   S9        1.0  0.52013  0.48329  0.25000  1.0000
  S   S10       1.0  0.48329  0.96316  0.75000  1.0000
  S   S11       1.0  0.03684  0.52013  0.75000  1.0000
  S   S12       1.0  0.47987  0.51671  0.75000  1.0000
  S   S13       1.0  0.73519  0.28519  0.25000  1.0000
  S   S14       1.0  0.71481  0.45000  0.25000  1.0000
  S   S15       1.0  0.55000  0.26481  0.25000  1.0000
  S   S16       1.0  0.26481  0.71481  0.75000  1.0000
  S   S17       1.0  0.28519  0.55000  0.75000  1.0000
  S   S18       1.0  0.45000  0.73519  0.75000  1.0000
  S   S19       1.0  0.66667  0.33333  0.75000  1.0000
  S   S20       1.0  0.33333  0.66667  0.25000  1.0000
