data_image0
_chemical_formula_structural       Sb2S6
_chemical_formula_sum              "Sb2 S6"
_cell_length_a       3.42594
_cell_length_b       7.21866
_cell_length_c       9.30539
_cell_angle_alpha    90
_cell_angle_beta     90
_cell_angle_gamma    90

_space_group_name_H-M_alt    "P 1"
_space_group_IT_number       1

loop_
  _space_group_symop_operation_xyz
  'x, y, z'

loop_
  _atom_site_type_symbol
  _atom_site_label
  _atom_site_symmetry_multiplicity
  _atom_site_fract_x
  _atom_site_fract_y
  _atom_site_fract_z
  _atom_site_occupancy
  Sb  Sb1       1.0  0.50000  0.73056  0.50000  1.0000
  Sb  Sb2       1.0  0.00000  0.26944  0.00000  1.0000
  S   S1        1.0  0.50000  0.09532  0.77882  1.0000
  S   S2        1.0  0.50000  0.09532  0.22118  1.0000
  S   S3        1.0  0.00000  0.90468  0.72118  1.0000
  S   S4        1.0  0.00000  0.90468  0.27882  1.0000
  S   S5        1.0  0.00000  0.48828  0.50000  1.0000
  S   S6        1.0  0.50000  0.51172  0.00000  1.0000
