data_image0
_chemical_formula_structural       SbS4
_chemical_formula_sum              "Sb1 S4"
_cell_length_a       5.96968
_cell_length_b       5.96968
_cell_length_c       5.96968
_cell_angle_alpha    96.6119
_cell_angle_beta     96.6119
_cell_angle_gamma    140.328

_space_group_name_H-M_alt    "P 1"
_space_group_IT_number       1

loop_
  _space_group_symop_operation_xyz
  'x, y, z'

loop_
  _atom_site_type_symbol
  _atom_site_label
  _atom_site_symmetry_multiplicity
  _atom_site_fract_x
  _atom_site_fract_y
  _atom_site_fract_z
  _atom_site_occupancy
  Sb  Sb1       1.0  0.00000  0.00000  0.00000  1.0000
  S   S1        1.0  0.72087  0.79991  0.52078  1.0000
  S   S2        1.0  0.27913  0.20009  0.47922  1.0000
  S   S3        1.0  0.20009  0.72087  0.92096  1.0000
  S   S4        1.0  0.79991  0.27913  0.07904  1.0000
