data_image0
_chemical_formula_structural       Sb4S8
_chemical_formula_sum              "Sb4 S8"
_cell_length_a       7.4921
_cell_length_b       7.4921
_cell_length_c       7.4921
_cell_angle_alpha    60
_cell_angle_beta     60
_cell_angle_gamma    60

_space_group_name_H-M_alt    "P 1"
_space_group_IT_number       1

loop_
  _space_group_symop_operation_xyz
  'x, y, z'

loop_
  _atom_site_type_symbol
  _atom_site_label
  _atom_site_symmetry_multiplicity
  _atom_site_fract_x
  _atom_site_fract_y
  _atom_site_fract_z
  _atom_site_occupancy
  Sb  Sb1       1.0  0.62500  0.62500  0.62500  1.0000
  Sb  Sb2       1.0  0.12500  0.62500  0.62500  1.0000
  Sb  Sb3       1.0  0.62500  0.12500  0.62500  1.0000
  Sb  Sb4       1.0  0.62500  0.62500  0.12500  1.0000
  S   S1        1.0  0.87649  0.37054  0.87649  1.0000
  S   S2        1.0  0.37351  0.37351  0.87946  1.0000
  S   S3        1.0  0.87946  0.37351  0.37351  1.0000
  S   S4        1.0  0.37351  0.37351  0.37351  1.0000
  S   S5        1.0  0.37054  0.87649  0.87649  1.0000
  S   S6        1.0  0.87649  0.87649  0.87649  1.0000
  S   S7        1.0  0.87649  0.87649  0.37054  1.0000
  S   S8        1.0  0.37351  0.87946  0.37351  1.0000
