data_image0
_chemical_formula_structural       Sb6N10
_chemical_formula_sum              "Sb6 N10"
_cell_length_a       3.16596
_cell_length_b       7.8916
_cell_length_c       9.04166
_cell_angle_alpha    90
_cell_angle_beta     90
_cell_angle_gamma    90

_space_group_name_H-M_alt    "P 1"
_space_group_IT_number       1

loop_
  _space_group_symop_operation_xyz
  'x, y, z'

loop_
  _atom_site_type_symbol
  _atom_site_label
  _atom_site_symmetry_multiplicity
  _atom_site_fract_x
  _atom_site_fract_y
  _atom_site_fract_z
  _atom_site_occupancy
  Sb  Sb1       1.0  0.50000  0.61246  0.84792  1.0000
  Sb  Sb2       1.0  0.50000  0.11246  0.65208  1.0000
  Sb  Sb3       1.0  0.00000  0.50000  0.50000  1.0000
  Sb  Sb4       1.0  0.00000  0.00000  0.00000  1.0000
  Sb  Sb5       1.0  0.50000  0.38754  0.15208  1.0000
  Sb  Sb6       1.0  0.50000  0.88754  0.34792  1.0000
  N   N1        1.0  0.50000  0.64692  0.42240  1.0000
  N   N2        1.0  0.50000  0.35308  0.57760  1.0000
  N   N3        1.0  0.00000  0.13515  0.79525  1.0000
  N   N4        1.0  0.50000  0.85308  0.92240  1.0000
  N   N5        1.0  0.00000  0.36485  0.29525  1.0000
  N   N6        1.0  0.00000  0.86485  0.20475  1.0000
  N   N7        1.0  0.00000  0.63515  0.70475  1.0000
  N   N8        1.0  0.00000  0.50000  0.00000  1.0000
  N   N9        1.0  0.00000  0.00000  0.50000  1.0000
  N   N10       1.0  0.50000  0.14692  0.07760  1.0000
