data_image0
_chemical_formula_structural       Sb6S10
_chemical_formula_sum              "Sb6 S10"
_cell_length_a       3.90988
_cell_length_b       5.59163
_cell_length_c       17.6024
_cell_angle_alpha    90
_cell_angle_beta     90
_cell_angle_gamma    90

_space_group_name_H-M_alt    "P 1"
_space_group_IT_number       1

loop_
  _space_group_symop_operation_xyz
  'x, y, z'

loop_
  _atom_site_type_symbol
  _atom_site_label
  _atom_site_symmetry_multiplicity
  _atom_site_fract_x
  _atom_site_fract_y
  _atom_site_fract_z
  _atom_site_occupancy
  Sb  Sb1       1.0  0.50000  0.54396  0.86422  1.0000
  Sb  Sb2       1.0  0.50000  0.04396  0.63578  1.0000
  Sb  Sb3       1.0  0.00000  0.50000  0.50000  1.0000
  Sb  Sb4       1.0  0.00000  0.00000  0.00000  1.0000
  Sb  Sb5       1.0  0.50000  0.45604  0.13578  1.0000
  Sb  Sb6       1.0  0.50000  0.95604  0.36422  1.0000
  S   S1        1.0  0.50000  0.51178  0.38990  1.0000
  S   S2        1.0  0.50000  0.48822  0.61010  1.0000
  S   S3        1.0  0.00000  0.07782  0.73698  1.0000
  S   S4        1.0  0.50000  0.98822  0.88990  1.0000
  S   S5        1.0  0.00000  0.42218  0.23698  1.0000
  S   S6        1.0  0.00000  0.92218  0.26302  1.0000
  S   S7        1.0  0.00000  0.57782  0.76302  1.0000
  S   S8        1.0  0.00000  0.50000  0.00000  1.0000
  S   S9        1.0  0.00000  0.00000  0.50000  1.0000
  S   S10       1.0  0.50000  0.01178  0.11010  1.0000
