data_image0
_chemical_formula_structural       S10Sb6
_chemical_formula_sum              "S10 Sb6"
_cell_length_a       8.16777
_cell_length_b       8.16777
_cell_length_c       8.16777
_cell_angle_alpha    126.661
_cell_angle_beta     126.661
_cell_angle_gamma    78.805

_space_group_name_H-M_alt    "P 1"
_space_group_IT_number       1

loop_
  _space_group_symop_operation_xyz
  'x, y, z'

loop_
  _atom_site_type_symbol
  _atom_site_label
  _atom_site_symmetry_multiplicity
  _atom_site_fract_x
  _atom_site_fract_y
  _atom_site_fract_z
  _atom_site_occupancy
  S   S1        1.0  0.51432  0.68847  0.50000  1.0000
  S   S2        1.0  0.48568  0.31153  0.50000  1.0000
  S   S3        1.0  0.50000  0.50000  0.00000  1.0000
  S   S4        1.0  0.00000  0.00000  0.00000  1.0000
  S   S5        1.0  0.18847  0.01432  0.50000  1.0000
  S   S6        1.0  0.01432  0.51432  0.82585  1.0000
  S   S7        1.0  0.68847  0.18847  0.17415  1.0000
  S   S8        1.0  0.31153  0.81153  0.82585  1.0000
  S   S9        1.0  0.98568  0.48568  0.17415  1.0000
  S   S10       1.0  0.81153  0.98568  0.50000  1.0000
  Sb  Sb1       1.0  0.82829  0.67171  0.50000  1.0000
  Sb  Sb2       1.0  0.67171  0.17171  0.84342  1.0000
  Sb  Sb3       1.0  0.32829  0.82829  0.15658  1.0000
  Sb  Sb4       1.0  0.17171  0.32829  0.50000  1.0000
  Sb  Sb5       1.0  0.25000  0.25000  0.00000  1.0000
  Sb  Sb6       1.0  0.75000  0.75000  0.00000  1.0000
