data_image0
_chemical_formula_structural       Sb3N4
_chemical_formula_sum              "Sb3 N4"
_cell_length_a       6.49854
_cell_length_b       6.49854
_cell_length_c       5.55338
_cell_angle_alpha    65.4836
_cell_angle_beta     65.4836
_cell_angle_gamma    29.6095

_space_group_name_H-M_alt    "P 1"
_space_group_IT_number       1

loop_
  _space_group_symop_operation_xyz
  'x, y, z'

loop_
  _atom_site_type_symbol
  _atom_site_label
  _atom_site_symmetry_multiplicity
  _atom_site_fract_x
  _atom_site_fract_y
  _atom_site_fract_z
  _atom_site_occupancy
  Sb  Sb1       1.0  0.00000  0.00000  0.00000  1.0000
  Sb  Sb2       1.0  0.28743  0.28743  0.71064  1.0000
  Sb  Sb3       1.0  0.71257  0.71257  0.28936  1.0000
  N   N1        1.0  0.13987  0.13987  0.54772  1.0000
  N   N2        1.0  0.86013  0.86013  0.45228  1.0000
  N   N3        1.0  0.63166  0.63166  0.01566  1.0000
  N   N4        1.0  0.36834  0.36834  0.98434  1.0000
