data_image0
_chemical_formula_structural       Sb2N4
_chemical_formula_sum              "Sb2 N4"
_cell_length_a       4.63786
_cell_length_b       4.63786
_cell_length_c       4.61878
_cell_angle_alpha    90
_cell_angle_beta     90
_cell_angle_gamma    104.95

_space_group_name_H-M_alt    "P 1"
_space_group_IT_number       1

loop_
  _space_group_symop_operation_xyz
  'x, y, z'

loop_
  _atom_site_type_symbol
  _atom_site_label
  _atom_site_symmetry_multiplicity
  _atom_site_fract_x
  _atom_site_fract_y
  _atom_site_fract_z
  _atom_site_occupancy
  Sb  Sb1       1.0  0.27274  0.27274  0.75000  1.0000
  Sb  Sb2       1.0  0.72726  0.72726  0.25000  1.0000
  N   N1        1.0  0.53011  0.72404  0.75000  1.0000
  N   N2        1.0  0.72404  0.53011  0.75000  1.0000
  N   N3        1.0  0.27596  0.46989  0.25000  1.0000
  N   N4        1.0  0.46989  0.27596  0.25000  1.0000
