data_image0
_chemical_formula_structural       Sb5S13
_chemical_formula_sum              "Sb5 S13"
_cell_length_a       13.5212
_cell_length_b       13.5212
_cell_length_c       8.15673
_cell_angle_alpha    65.7202
_cell_angle_beta     65.7202
_cell_angle_gamma    18.6477

_space_group_name_H-M_alt    "P 1"
_space_group_IT_number       1

loop_
  _space_group_symop_operation_xyz
  'x, y, z'

loop_
  _atom_site_type_symbol
  _atom_site_label
  _atom_site_symmetry_multiplicity
  _atom_site_fract_x
  _atom_site_fract_y
  _atom_site_fract_z
  _atom_site_occupancy
  Sb  Sb1       1.0  0.00000  0.00000  0.00000  1.0000
  Sb  Sb2       1.0  0.10116  0.10116  0.31635  1.0000
  Sb  Sb3       1.0  0.89884  0.89884  0.68365  1.0000
  Sb  Sb4       1.0  0.30305  0.30305  0.30570  1.0000
  Sb  Sb5       1.0  0.69695  0.69695  0.69430  1.0000
  S   S1        1.0  0.00000  0.00000  0.50000  1.0000
  S   S2        1.0  0.10006  0.10006  0.01051  1.0000
  S   S3        1.0  0.89994  0.89994  0.98949  1.0000
  S   S4        1.0  0.19995  0.19995  0.49717  1.0000
  S   S5        1.0  0.80005  0.80005  0.50283  1.0000
  S   S6        1.0  0.23168  0.23168  0.86804  1.0000
  S   S7        1.0  0.76832  0.76832  0.13196  1.0000
  S   S8        1.0  0.30664  0.30664  0.85738  1.0000
  S   S9        1.0  0.69336  0.69336  0.14262  1.0000
  S   S10       1.0  0.40249  0.40249  0.42712  1.0000
  S   S11       1.0  0.59751  0.59751  0.57288  1.0000
  S   S12       1.0  0.52088  0.52088  0.76702  1.0000
  S   S13       1.0  0.47912  0.47912  0.23298  1.0000
