data_image0
_chemical_formula_structural       Sb2N4
_chemical_formula_sum              "Sb2 N4"
_cell_length_a       3.26279
_cell_length_b       4.41736
_cell_length_c       5.10754
_cell_angle_alpha    90
_cell_angle_beta     90
_cell_angle_gamma    90

_space_group_name_H-M_alt    "P 1"
_space_group_IT_number       1

loop_
  _space_group_symop_operation_xyz
  'x, y, z'

loop_
  _atom_site_type_symbol
  _atom_site_label
  _atom_site_symmetry_multiplicity
  _atom_site_fract_x
  _atom_site_fract_y
  _atom_site_fract_z
  _atom_site_occupancy
  Sb  Sb1       1.0  0.00000  0.00000  0.00000  1.0000
  Sb  Sb2       1.0  0.50000  0.50000  0.50000  1.0000
  N   N1        1.0  0.00000  0.22855  0.36629  1.0000
  N   N2        1.0  0.00000  0.77145  0.63371  1.0000
  N   N3        1.0  0.50000  0.72855  0.13371  1.0000
  N   N4        1.0  0.50000  0.27145  0.86629  1.0000
