data_image0
_chemical_formula_structural       Sb2S2
_chemical_formula_sum              "Sb2 S2"
_cell_length_a       6.05865
_cell_length_b       6.05865
_cell_length_c       4.62128
_cell_angle_alpha    90
_cell_angle_beta     90
_cell_angle_gamma    146.337

_space_group_name_H-M_alt    "P 1"
_space_group_IT_number       1

loop_
  _space_group_symop_operation_xyz
  'x, y, z'

loop_
  _atom_site_type_symbol
  _atom_site_label
  _atom_site_symmetry_multiplicity
  _atom_site_fract_x
  _atom_site_fract_y
  _atom_site_fract_z
  _atom_site_occupancy
  Sb  Sb1       1.0  0.12825  0.87175  0.75000  1.0000
  Sb  Sb2       1.0  0.87175  0.12825  0.25000  1.0000
  S   S1        1.0  0.35135  0.64865  0.75000  1.0000
  S   S2        1.0  0.64865  0.35135  0.25000  1.0000
