data_image0
_chemical_formula_structural       S4Sb2
_chemical_formula_sum              "S4 Sb2"
_cell_length_a       5.57112
_cell_length_b       5.57112
_cell_length_c       5.57112
_cell_angle_alpha    110.747
_cell_angle_beta     110.747
_cell_angle_gamma    106.948

_space_group_name_H-M_alt    "P 1"
_space_group_IT_number       1

loop_
  _space_group_symop_operation_xyz
  'x, y, z'

loop_
  _atom_site_type_symbol
  _atom_site_label
  _atom_site_symmetry_multiplicity
  _atom_site_fract_x
  _atom_site_fract_y
  _atom_site_fract_z
  _atom_site_occupancy
  S   S1        1.0  0.38274  0.88274  0.26547  1.0000
  S   S2        1.0  0.11726  0.38274  0.50000  1.0000
  S   S3        1.0  0.88274  0.61726  0.50000  1.0000
  S   S4        1.0  0.61726  0.11726  0.73453  1.0000
  Sb  Sb1       1.0  0.75000  0.75000  0.00000  1.0000
  Sb  Sb2       1.0  0.25000  0.25000  0.00000  1.0000
