data_image0
_chemical_formula_structural       N8Sb4
_chemical_formula_sum              "N8 Sb4"
_cell_length_a       10.1821
_cell_length_b       3.28021
_cell_length_c       9.034
_cell_angle_alpha    50.3554
_cell_angle_beta     90
_cell_angle_gamma    90

_space_group_name_H-M_alt    "P 1"
_space_group_IT_number       1

loop_
  _space_group_symop_operation_xyz
  'x, y, z'

loop_
  _atom_site_type_symbol
  _atom_site_label
  _atom_site_symmetry_multiplicity
  _atom_site_fract_x
  _atom_site_fract_y
  _atom_site_fract_z
  _atom_site_occupancy
  N   N1        1.0  0.44423  0.84110  0.49351  1.0000
  N   N2        1.0  0.55577  0.84110  0.99351  1.0000
  N   N3        1.0  0.31589  0.67741  0.83845  1.0000
  N   N4        1.0  0.98291  0.73401  0.04425  1.0000
  N   N5        1.0  0.68411  0.67741  0.33845  1.0000
  N   N6        1.0  0.01709  0.73401  0.54425  1.0000
  N   N7        1.0  0.95651  0.71456  0.65177  1.0000
  N   N8        1.0  0.04349  0.71456  0.15177  1.0000
  Sb  Sb1       1.0  0.35234  0.85883  0.01666  1.0000
  Sb  Sb2       1.0  0.64766  0.85883  0.51666  1.0000
  Sb  Sb3       1.0  0.67820  0.25738  0.03867  1.0000
  Sb  Sb4       1.0  0.32180  0.25738  0.53867  1.0000
