data_image0
_chemical_formula_structural       Sb10N6
_chemical_formula_sum              "Sb10 N6"
_cell_length_a       7.74893
_cell_length_b       7.74893
_cell_length_c       7.74893
_cell_angle_alpha    100.946
_cell_angle_beta     100.946
_cell_angle_gamma    128.334

_space_group_name_H-M_alt    "P 1"
_space_group_IT_number       1

loop_
  _space_group_symop_operation_xyz
  'x, y, z'

loop_
  _atom_site_type_symbol
  _atom_site_label
  _atom_site_symmetry_multiplicity
  _atom_site_fract_x
  _atom_site_fract_y
  _atom_site_fract_z
  _atom_site_occupancy
  Sb  Sb1       1.0  0.54071  0.27617  0.81688  1.0000
  Sb  Sb2       1.0  0.45929  0.72383  0.18312  1.0000
  Sb  Sb3       1.0  0.72383  0.54071  0.26453  1.0000
  Sb  Sb4       1.0  0.27617  0.45929  0.73547  1.0000
  Sb  Sb5       1.0  0.95929  0.77617  0.73547  1.0000
  Sb  Sb6       1.0  0.22383  0.95929  0.18312  1.0000
  Sb  Sb7       1.0  0.25000  0.75000  0.50000  1.0000
  Sb  Sb8       1.0  0.75000  0.25000  0.50000  1.0000
  Sb  Sb9       1.0  0.04071  0.22383  0.26453  1.0000
  Sb  Sb10      1.0  0.77617  0.04071  0.81688  1.0000
  N   N1        1.0  0.74494  0.24494  0.98988  1.0000
  N   N2        1.0  0.75506  0.74494  0.50000  1.0000
  N   N3        1.0  0.24494  0.25506  0.50000  1.0000
  N   N4        1.0  0.25506  0.75506  0.01012  1.0000
  N   N5        1.0  0.75000  0.75000  0.00000  1.0000
  N   N6        1.0  0.25000  0.25000  0.00000  1.0000
