data_image0
_chemical_formula_structural       Sb4S8
_chemical_formula_sum              "Sb4 S8"
_cell_length_a       7.93093
_cell_length_b       7.93093
_cell_length_c       12.371
_cell_angle_alpha    58.7533
_cell_angle_beta     58.7533
_cell_angle_gamma    28.8603

_space_group_name_H-M_alt    "P 1"
_space_group_IT_number       1

loop_
  _space_group_symop_operation_xyz
  'x, y, z'

loop_
  _atom_site_type_symbol
  _atom_site_label
  _atom_site_symmetry_multiplicity
  _atom_site_fract_x
  _atom_site_fract_y
  _atom_site_fract_z
  _atom_site_occupancy
  Sb  Sb1       1.0  0.68281  0.68281  0.93119  1.0000
  Sb  Sb2       1.0  0.31719  0.31719  0.06881  1.0000
  Sb  Sb3       1.0  0.37780  0.37780  0.42980  1.0000
  Sb  Sb4       1.0  0.62220  0.62220  0.57020  1.0000
  S   S1        1.0  0.03148  0.03148  0.05654  1.0000
  S   S2        1.0  0.96852  0.96852  0.94346  1.0000
  S   S3        1.0  0.91963  0.91963  0.55386  1.0000
  S   S4        1.0  0.08037  0.08037  0.44614  1.0000
  S   S5        1.0  0.67153  0.67153  0.13812  1.0000
  S   S6        1.0  0.32847  0.32847  0.86188  1.0000
  S   S7        1.0  0.21115  0.21115  0.63773  1.0000
  S   S8        1.0  0.78885  0.78885  0.36227  1.0000
