data_image0
_chemical_formula_structural       Sb2S4
_chemical_formula_sum              "Sb2 S4"
_cell_length_a       5.65702
_cell_length_b       5.65702
_cell_length_c       4.95778
_cell_angle_alpha    90
_cell_angle_beta     90
_cell_angle_gamma    127.802

_space_group_name_H-M_alt    "P 1"
_space_group_IT_number       1

loop_
  _space_group_symop_operation_xyz
  'x, y, z'

loop_
  _atom_site_type_symbol
  _atom_site_label
  _atom_site_symmetry_multiplicity
  _atom_site_fract_x
  _atom_site_fract_y
  _atom_site_fract_z
  _atom_site_occupancy
  Sb  Sb1       1.0  0.26760  0.26760  0.75000  1.0000
  Sb  Sb2       1.0  0.73240  0.73240  0.25000  1.0000
  S   S1        1.0  0.58001  0.87322  0.75000  1.0000
  S   S2        1.0  0.87322  0.58001  0.75000  1.0000
  S   S3        1.0  0.12678  0.41999  0.25000  1.0000
  S   S4        1.0  0.41999  0.12678  0.25000  1.0000
