data_image0
_chemical_formula_structural       Sb2S4
_chemical_formula_sum              "Sb2 S4"
_cell_length_a       3.86087
_cell_length_b       5.96272
_cell_length_c       6.40024
_cell_angle_alpha    90
_cell_angle_beta     90
_cell_angle_gamma    90

_space_group_name_H-M_alt    "P 1"
_space_group_IT_number       1

loop_
  _space_group_symop_operation_xyz
  'x, y, z'

loop_
  _atom_site_type_symbol
  _atom_site_label
  _atom_site_symmetry_multiplicity
  _atom_site_fract_x
  _atom_site_fract_y
  _atom_site_fract_z
  _atom_site_occupancy
  Sb  Sb1       1.0  0.50000  0.50000  0.50000  1.0000
  Sb  Sb2       1.0  0.00000  0.00000  0.00000  1.0000
  S   S1        1.0  0.50000  0.25104  0.84779  1.0000
  S   S2        1.0  0.50000  0.74896  0.15221  1.0000
  S   S3        1.0  0.00000  0.24896  0.34779  1.0000
  S   S4        1.0  0.00000  0.75104  0.65221  1.0000
