data_image0
_chemical_formula_structural       N8Sb4
_chemical_formula_sum              "N8 Sb4"
_cell_length_a       5.16279
_cell_length_b       8.47055
_cell_length_c       5.96367
_cell_angle_alpha    72.4706
_cell_angle_beta     90
_cell_angle_gamma    90

_space_group_name_H-M_alt    "P 1"
_space_group_IT_number       1

loop_
  _space_group_symop_operation_xyz
  'x, y, z'

loop_
  _atom_site_type_symbol
  _atom_site_label
  _atom_site_symmetry_multiplicity
  _atom_site_fract_x
  _atom_site_fract_y
  _atom_site_fract_z
  _atom_site_occupancy
  N   N1        1.0  0.33800  0.07558  0.33046  1.0000
  N   N2        1.0  0.83800  0.92442  0.16954  1.0000
  N   N3        1.0  0.66200  0.92442  0.66954  1.0000
  N   N4        1.0  0.16200  0.07558  0.83046  1.0000
  N   N5        1.0  0.92896  0.51354  0.56228  1.0000
  N   N6        1.0  0.42896  0.48646  0.93772  1.0000
  N   N7        1.0  0.07104  0.48646  0.43772  1.0000
  N   N8        1.0  0.57104  0.51354  0.06228  1.0000
  Sb  Sb1       1.0  0.02730  0.15063  0.11253  1.0000
  Sb  Sb2       1.0  0.52730  0.84937  0.38747  1.0000
  Sb  Sb3       1.0  0.97270  0.84937  0.88747  1.0000
  Sb  Sb4       1.0  0.47270  0.15063  0.61253  1.0000
