data_image0
_chemical_formula_structural       S9Sb13
_chemical_formula_sum              "S9 Sb13"
_cell_length_a       8.9351
_cell_length_b       8.9351
_cell_length_c       7.66778
_cell_angle_alpha    90
_cell_angle_beta     90
_cell_angle_gamma    120

_space_group_name_H-M_alt    "P 1"
_space_group_IT_number       1

loop_
  _space_group_symop_operation_xyz
  'x, y, z'

loop_
  _atom_site_type_symbol
  _atom_site_label
  _atom_site_symmetry_multiplicity
  _atom_site_fract_x
  _atom_site_fract_y
  _atom_site_fract_z
  _atom_site_occupancy
  S   S1        1.0  0.00000  0.00000  0.50000  1.0000
  S   S2        1.0  0.33333  0.66667  0.88398  1.0000
  S   S3        1.0  0.66667  0.33333  0.11602  1.0000
  S   S4        1.0  0.20150  0.79850  0.27976  1.0000
  S   S5        1.0  0.20150  0.40300  0.27976  1.0000
  S   S6        1.0  0.59700  0.79850  0.27976  1.0000
  S   S7        1.0  0.40300  0.20150  0.72024  1.0000
  S   S8        1.0  0.79850  0.59700  0.72024  1.0000
  S   S9        1.0  0.79850  0.20150  0.72024  1.0000
  Sb  Sb1       1.0  0.00000  0.00000  0.00000  1.0000
  Sb  Sb2       1.0  0.50000  0.00000  0.00000  1.0000
  Sb  Sb3       1.0  0.00000  0.50000  0.00000  1.0000
  Sb  Sb4       1.0  0.50000  0.50000  0.00000  1.0000
  Sb  Sb5       1.0  0.50000  0.00000  0.50000  1.0000
  Sb  Sb6       1.0  0.00000  0.50000  0.50000  1.0000
  Sb  Sb7       1.0  0.50000  0.50000  0.50000  1.0000
  Sb  Sb8       1.0  0.14835  0.85165  0.73155  1.0000
  Sb  Sb9       1.0  0.14835  0.29669  0.73155  1.0000
  Sb  Sb10      1.0  0.70331  0.85165  0.73155  1.0000
  Sb  Sb11      1.0  0.29669  0.14835  0.26845  1.0000
  Sb  Sb12      1.0  0.85165  0.70331  0.26845  1.0000
  Sb  Sb13      1.0  0.85165  0.14835  0.26845  1.0000
