data_image0
_chemical_formula_structural       N4Sb2
_chemical_formula_sum              "N4 Sb2"
_cell_length_a       4.94037
_cell_length_b       4.94037
_cell_length_c       4.94037
_cell_angle_alpha    113.033
_cell_angle_beta     113.033
_cell_angle_gamma    102.562

_space_group_name_H-M_alt    "P 1"
_space_group_IT_number       1

loop_
  _space_group_symop_operation_xyz
  'x, y, z'

loop_
  _atom_site_type_symbol
  _atom_site_label
  _atom_site_symmetry_multiplicity
  _atom_site_fract_x
  _atom_site_fract_y
  _atom_site_fract_z
  _atom_site_occupancy
  N   N1        1.0  0.42265  0.92265  0.34530  1.0000
  N   N2        1.0  0.07735  0.42265  0.50000  1.0000
  N   N3        1.0  0.92265  0.57735  0.50000  1.0000
  N   N4        1.0  0.57735  0.07735  0.65470  1.0000
  Sb  Sb1       1.0  0.75000  0.75000  0.00000  1.0000
  Sb  Sb2       1.0  0.25000  0.25000  0.00000  1.0000
