data_image0
_chemical_formula_structural       Sb8Se8
_chemical_formula_sum              "Sb8 Se8"
_cell_length_a       7.73269
_cell_length_b       7.73269
_cell_length_c       8.16043
_cell_angle_alpha    90
_cell_angle_beta     90
_cell_angle_gamma    90

_space_group_name_H-M_alt    "P 1"
_space_group_IT_number       1

loop_
  _space_group_symop_operation_xyz
  'x, y, z'

loop_
  _atom_site_type_symbol
  _atom_site_label
  _atom_site_symmetry_multiplicity
  _atom_site_fract_x
  _atom_site_fract_y
  _atom_site_fract_z
  _atom_site_occupancy
  Sb  Sb1       1.0  0.54269  0.69702  0.00000  1.0000
  Sb  Sb2       1.0  0.30298  0.54269  0.50000  1.0000
  Sb  Sb3       1.0  0.69702  0.45731  0.50000  1.0000
  Sb  Sb4       1.0  0.45731  0.30298  0.00000  1.0000
  Sb  Sb5       1.0  0.50000  0.00000  0.50000  1.0000
  Sb  Sb6       1.0  0.00000  0.50000  0.00000  1.0000
  Sb  Sb7       1.0  0.00000  0.00000  0.75000  1.0000
  Sb  Sb8       1.0  0.00000  0.00000  0.25000  1.0000
  Se  Se1       1.0  0.19678  0.31240  0.75800  1.0000
  Se  Se2       1.0  0.68760  0.19678  0.25800  1.0000
  Se  Se3       1.0  0.31240  0.80322  0.25800  1.0000
  Se  Se4       1.0  0.80322  0.68760  0.75800  1.0000
  Se  Se5       1.0  0.80322  0.68760  0.24200  1.0000
  Se  Se6       1.0  0.31240  0.80322  0.74200  1.0000
  Se  Se7       1.0  0.68760  0.19678  0.74200  1.0000
  Se  Se8       1.0  0.19678  0.31240  0.24200  1.0000
