data_image0
_chemical_formula_structural       Sb6Se16
_chemical_formula_sum              "Sb6 Se16"
_cell_length_a       6.67233
_cell_length_b       7.06888
_cell_length_c       14.8578
_cell_angle_alpha    62.589
_cell_angle_beta     90
_cell_angle_gamma    90

_space_group_name_H-M_alt    "P 1"
_space_group_IT_number       1

loop_
  _space_group_symop_operation_xyz
  'x, y, z'

loop_
  _atom_site_type_symbol
  _atom_site_label
  _atom_site_symmetry_multiplicity
  _atom_site_fract_x
  _atom_site_fract_y
  _atom_site_fract_z
  _atom_site_occupancy
  Sb  Sb1       1.0  0.48422  0.76419  0.75208  1.0000
  Sb  Sb2       1.0  0.51578  0.23581  0.24792  1.0000
  Sb  Sb3       1.0  0.50000  0.00000  0.00000  1.0000
  Sb  Sb4       1.0  0.98422  0.23581  0.74792  1.0000
  Sb  Sb5       1.0  0.01578  0.76419  0.25208  1.0000
  Sb  Sb6       1.0  0.00000  0.00000  0.50000  1.0000
  Se  Se1       1.0  0.61274  0.70655  0.20416  1.0000
  Se  Se2       1.0  0.56936  0.18399  0.67519  1.0000
  Se  Se3       1.0  0.62455  0.63709  0.96046  1.0000
  Se  Se4       1.0  0.58631  0.16583  0.46021  1.0000
  Se  Se5       1.0  0.91369  0.16583  0.96021  1.0000
  Se  Se6       1.0  0.93064  0.18399  0.17519  1.0000
  Se  Se7       1.0  0.87545  0.63709  0.46046  1.0000
  Se  Se8       1.0  0.88726  0.70655  0.70416  1.0000
  Se  Se9       1.0  0.06936  0.81601  0.82481  1.0000
  Se  Se10      1.0  0.08631  0.83417  0.03979  1.0000
  Se  Se11      1.0  0.12455  0.36291  0.53954  1.0000
  Se  Se12      1.0  0.11274  0.29345  0.29584  1.0000
  Se  Se13      1.0  0.37545  0.36291  0.03954  1.0000
  Se  Se14      1.0  0.38726  0.29345  0.79584  1.0000
  Se  Se15      1.0  0.43064  0.81601  0.32481  1.0000
  Se  Se16      1.0  0.41369  0.83417  0.53979  1.0000
