data_image0
_chemical_formula_structural       S8Sb4
_chemical_formula_sum              "S8 Sb4"
_cell_length_a       6.60573
_cell_length_b       7.40127
_cell_length_c       7.03878
_cell_angle_alpha    65.4379
_cell_angle_beta     90
_cell_angle_gamma    90

_space_group_name_H-M_alt    "P 1"
_space_group_IT_number       1

loop_
  _space_group_symop_operation_xyz
  'x, y, z'

loop_
  _atom_site_type_symbol
  _atom_site_label
  _atom_site_symmetry_multiplicity
  _atom_site_fract_x
  _atom_site_fract_y
  _atom_site_fract_z
  _atom_site_occupancy
  S   S1        1.0  0.11058  0.03333  0.38614  1.0000
  S   S2        1.0  0.61058  0.96667  0.11386  1.0000
  S   S3        1.0  0.88942  0.96667  0.61386  1.0000
  S   S4        1.0  0.38942  0.03333  0.88614  1.0000
  S   S5        1.0  0.72899  0.46713  0.61602  1.0000
  S   S6        1.0  0.22899  0.53287  0.88398  1.0000
  S   S7        1.0  0.27101  0.53287  0.38398  1.0000
  S   S8        1.0  0.77101  0.46713  0.11602  1.0000
  Sb  Sb1       1.0  0.90497  0.24776  0.95577  1.0000
  Sb  Sb2       1.0  0.40497  0.75224  0.54423  1.0000
  Sb  Sb3       1.0  0.09503  0.75224  0.04423  1.0000
  Sb  Sb4       1.0  0.59503  0.24776  0.45577  1.0000
