data_image0
_chemical_formula_structural       Sb4Se8
_chemical_formula_sum              "Sb4 Se8"
_cell_length_a       8.47784
_cell_length_b       8.47784
_cell_length_c       12.7358
_cell_angle_alpha    56.2795
_cell_angle_beta     56.2795
_cell_angle_gamma    28.1739

_space_group_name_H-M_alt    "P 1"
_space_group_IT_number       1

loop_
  _space_group_symop_operation_xyz
  'x, y, z'

loop_
  _atom_site_type_symbol
  _atom_site_label
  _atom_site_symmetry_multiplicity
  _atom_site_fract_x
  _atom_site_fract_y
  _atom_site_fract_z
  _atom_site_occupancy
  Sb  Sb1       1.0  0.68591  0.68591  0.93034  1.0000
  Sb  Sb2       1.0  0.31409  0.31409  0.06966  1.0000
  Sb  Sb3       1.0  0.37694  0.37694  0.42888  1.0000
  Sb  Sb4       1.0  0.62306  0.62306  0.57112  1.0000
  Se  Se1       1.0  0.03253  0.03253  0.06366  1.0000
  Se  Se2       1.0  0.96747  0.96747  0.93634  1.0000
  Se  Se3       1.0  0.91126  0.91126  0.56010  1.0000
  Se  Se4       1.0  0.08874  0.08874  0.43990  1.0000
  Se  Se5       1.0  0.66491  0.66491  0.15013  1.0000
  Se  Se6       1.0  0.33509  0.33509  0.84987  1.0000
  Se  Se7       1.0  0.20393  0.20393  0.64975  1.0000
  Se  Se8       1.0  0.79607  0.79607  0.35025  1.0000
