data_image0
_chemical_formula_structural       Tl6Sb2
_chemical_formula_sum              "Tl6 Sb2"
_cell_length_a       5.71107
_cell_length_b       5.95829
_cell_length_c       7.38219
_cell_angle_alpha    90
_cell_angle_beta     90
_cell_angle_gamma    90

_space_group_name_H-M_alt    "P 1"
_space_group_IT_number       1

loop_
  _space_group_symop_operation_xyz
  'x, y, z'

loop_
  _atom_site_type_symbol
  _atom_site_label
  _atom_site_symmetry_multiplicity
  _atom_site_fract_x
  _atom_site_fract_y
  _atom_site_fract_z
  _atom_site_occupancy
  Tl  Tl1       1.0  0.00000  0.31589  0.25262  1.0000
  Tl  Tl2       1.0  0.00000  0.31589  0.74738  1.0000
  Tl  Tl3       1.0  0.50000  0.68411  0.24738  1.0000
  Tl  Tl4       1.0  0.50000  0.68411  0.75262  1.0000
  Tl  Tl5       1.0  0.00000  0.82942  0.50000  1.0000
  Tl  Tl6       1.0  0.50000  0.17058  0.00000  1.0000
  Sb  Sb1       1.0  0.00000  0.84388  0.00000  1.0000
  Sb  Sb2       1.0  0.50000  0.15612  0.50000  1.0000
