data_image0
_chemical_formula_structural       Sb6S6
_chemical_formula_sum              "Sb6 S6"
_cell_length_a       3.88789
_cell_length_b       3.88789
_cell_length_c       26.6237
_cell_angle_alpha    90
_cell_angle_beta     90
_cell_angle_gamma    91.1798

_space_group_name_H-M_alt    "P 1"
_space_group_IT_number       1

loop_
  _space_group_symop_operation_xyz
  'x, y, z'

loop_
  _atom_site_type_symbol
  _atom_site_label
  _atom_site_symmetry_multiplicity
  _atom_site_fract_x
  _atom_site_fract_y
  _atom_site_fract_z
  _atom_site_occupancy
  Sb  Sb1       1.0  0.52728  0.47272  0.13164  1.0000
  Sb  Sb2       1.0  0.47272  0.52728  0.86836  1.0000
  Sb  Sb3       1.0  0.47272  0.52728  0.63164  1.0000
  Sb  Sb4       1.0  0.52728  0.47272  0.36836  1.0000
  Sb  Sb5       1.0  0.44416  0.55584  0.75000  1.0000
  Sb  Sb6       1.0  0.55584  0.44416  0.25000  1.0000
  S   S1        1.0  0.90371  0.09629  0.75000  1.0000
  S   S2        1.0  0.09629  0.90371  0.25000  1.0000
  S   S3        1.0  0.03291  0.96709  0.61333  1.0000
  S   S4        1.0  0.96709  0.03291  0.11333  1.0000
  S   S5        1.0  0.03291  0.96709  0.88667  1.0000
  S   S6        1.0  0.96709  0.03291  0.38667  1.0000
