data_image0
_chemical_formula_structural       Sb5Se13
_chemical_formula_sum              "Sb5 Se13"
_cell_length_a       15.4041
_cell_length_b       15.4041
_cell_length_c       6.76354
_cell_angle_alpha    73.2833
_cell_angle_beta     73.2833
_cell_angle_gamma    21.2424

_space_group_name_H-M_alt    "P 1"
_space_group_IT_number       1

loop_
  _space_group_symop_operation_xyz
  'x, y, z'

loop_
  _atom_site_type_symbol
  _atom_site_label
  _atom_site_symmetry_multiplicity
  _atom_site_fract_x
  _atom_site_fract_y
  _atom_site_fract_z
  _atom_site_occupancy
  Sb  Sb1       1.0  0.00000  0.00000  0.00000  1.0000
  Sb  Sb2       1.0  0.09315  0.09315  0.42829  1.0000
  Sb  Sb3       1.0  0.90685  0.90685  0.57171  1.0000
  Sb  Sb4       1.0  0.31495  0.31495  0.42800  1.0000
  Sb  Sb5       1.0  0.68505  0.68505  0.57200  1.0000
  Se  Se1       1.0  0.00000  0.00000  0.50000  1.0000
  Se  Se2       1.0  0.10897  0.10897  0.04236  1.0000
  Se  Se3       1.0  0.89103  0.89103  0.95764  1.0000
  Se  Se4       1.0  0.19986  0.19986  0.56147  1.0000
  Se  Se5       1.0  0.80014  0.80014  0.43853  1.0000
  Se  Se6       1.0  0.20503  0.20503  0.90518  1.0000
  Se  Se7       1.0  0.79497  0.79497  0.09482  1.0000
  Se  Se8       1.0  0.29554  0.29554  0.81913  1.0000
  Se  Se9       1.0  0.70446  0.70446  0.18087  1.0000
  Se  Se10      1.0  0.40192  0.40192  0.47270  1.0000
  Se  Se11      1.0  0.59808  0.59808  0.52730  1.0000
  Se  Se12      1.0  0.45807  0.45807  0.09825  1.0000
  Se  Se13      1.0  0.54193  0.54193  0.90175  1.0000
