data_image0
_chemical_formula_structural       Sb2Se4
_chemical_formula_sum              "Sb2 Se4"
_cell_length_a       5.81589
_cell_length_b       5.81589
_cell_length_c       5.81589
_cell_angle_alpha    112.784
_cell_angle_beta     112.784
_cell_angle_gamma    103.032

_space_group_name_H-M_alt    "P 1"
_space_group_IT_number       1

loop_
  _space_group_symop_operation_xyz
  'x, y, z'

loop_
  _atom_site_type_symbol
  _atom_site_label
  _atom_site_symmetry_multiplicity
  _atom_site_fract_x
  _atom_site_fract_y
  _atom_site_fract_z
  _atom_site_occupancy
  Sb  Sb1       1.0  0.25000  0.25000  0.00000  1.0000
  Sb  Sb2       1.0  0.75000  0.75000  0.00000  1.0000
  Se  Se1       1.0  0.64533  0.14533  0.79066  1.0000
  Se  Se2       1.0  0.35467  0.85467  0.20934  1.0000
  Se  Se3       1.0  0.85467  0.64533  0.50000  1.0000
  Se  Se4       1.0  0.14533  0.35467  0.50000  1.0000
