data_image0
_chemical_formula_structural       SbSe4
_chemical_formula_sum              "Sb1 Se4"
_cell_length_a       6.61002
_cell_length_b       6.61002
_cell_length_c       6.61002
_cell_angle_alpha    94.0998
_cell_angle_beta     94.0998
_cell_angle_gamma    148.983

_space_group_name_H-M_alt    "P 1"
_space_group_IT_number       1

loop_
  _space_group_symop_operation_xyz
  'x, y, z'

loop_
  _atom_site_type_symbol
  _atom_site_label
  _atom_site_symmetry_multiplicity
  _atom_site_fract_x
  _atom_site_fract_y
  _atom_site_fract_z
  _atom_site_occupancy
  Sb  Sb1       1.0  0.00000  0.00000  0.00000  1.0000
  Se  Se1       1.0  0.64586  0.27589  0.92175  1.0000
  Se  Se2       1.0  0.35414  0.72411  0.07825  1.0000
  Se  Se3       1.0  0.72411  0.64586  0.36997  1.0000
  Se  Se4       1.0  0.27589  0.35414  0.63003  1.0000
