data_image0
_chemical_formula_structural       Sb6Se20
_chemical_formula_sum              "Sb6 Se20"
_cell_length_a       15.1015
_cell_length_b       15.1015
_cell_length_c       3.622
_cell_angle_alpha    90
_cell_angle_beta     90
_cell_angle_gamma    120

_space_group_name_H-M_alt    "P 1"
_space_group_IT_number       1

loop_
  _space_group_symop_operation_xyz
  'x, y, z'

loop_
  _atom_site_type_symbol
  _atom_site_label
  _atom_site_symmetry_multiplicity
  _atom_site_fract_x
  _atom_site_fract_y
  _atom_site_fract_z
  _atom_site_occupancy
  Sb  Sb1       1.0  0.63343  0.75854  0.25000  1.0000
  Sb  Sb2       1.0  0.24146  0.87489  0.25000  1.0000
  Sb  Sb3       1.0  0.12511  0.36657  0.25000  1.0000
  Sb  Sb4       1.0  0.36657  0.24146  0.75000  1.0000
  Sb  Sb5       1.0  0.75854  0.12511  0.75000  1.0000
  Sb  Sb6       1.0  0.87489  0.63343  0.75000  1.0000
  Se  Se1       1.0  0.91403  0.07393  0.25000  1.0000
  Se  Se2       1.0  0.92607  0.84010  0.25000  1.0000
  Se  Se3       1.0  0.15990  0.08597  0.25000  1.0000
  Se  Se4       1.0  0.08597  0.92607  0.75000  1.0000
  Se  Se5       1.0  0.07393  0.15990  0.75000  1.0000
  Se  Se6       1.0  0.84010  0.91403  0.75000  1.0000
  Se  Se7       1.0  0.63026  0.99803  0.25000  1.0000
  Se  Se8       1.0  0.00197  0.63223  0.25000  1.0000
  Se  Se9       1.0  0.36777  0.36974  0.25000  1.0000
  Se  Se10      1.0  0.36974  0.00197  0.75000  1.0000
  Se  Se11      1.0  0.99803  0.36777  0.75000  1.0000
  Se  Se12      1.0  0.63223  0.63026  0.75000  1.0000
  Se  Se13      1.0  0.77482  0.28634  0.25000  1.0000
  Se  Se14      1.0  0.71366  0.48848  0.25000  1.0000
  Se  Se15      1.0  0.51152  0.22518  0.25000  1.0000
  Se  Se16      1.0  0.22518  0.71366  0.75000  1.0000
  Se  Se17      1.0  0.28634  0.51152  0.75000  1.0000
  Se  Se18      1.0  0.48848  0.77482  0.75000  1.0000
  Se  Se19      1.0  0.66667  0.33333  0.75000  1.0000
  Se  Se20      1.0  0.33333  0.66667  0.25000  1.0000
