data_image0
_chemical_formula_structural       Sb4Se18
_chemical_formula_sum              "Sb4 Se18"
_cell_length_a       10.2411
_cell_length_b       10.9015
_cell_length_c       10.5477
_cell_angle_alpha    68.9669
_cell_angle_beta     98.6518
_cell_angle_gamma    103.646

_space_group_name_H-M_alt    "P 1"
_space_group_IT_number       1

loop_
  _space_group_symop_operation_xyz
  'x, y, z'

loop_
  _atom_site_type_symbol
  _atom_site_label
  _atom_site_symmetry_multiplicity
  _atom_site_fract_x
  _atom_site_fract_y
  _atom_site_fract_z
  _atom_site_occupancy
  Sb  Sb1       1.0  0.12520  0.07490  0.14304  1.0000
  Sb  Sb2       1.0  0.87480  0.92510  0.85696  1.0000
  Sb  Sb3       1.0  0.37137  0.30699  0.37635  1.0000
  Sb  Sb4       1.0  0.62863  0.69301  0.62365  1.0000
  Se  Se1       1.0  0.07024  0.06909  0.56649  1.0000
  Se  Se2       1.0  0.92976  0.93091  0.43351  1.0000
  Se  Se3       1.0  0.42657  0.33747  0.62564  1.0000
  Se  Se4       1.0  0.57343  0.66253  0.37436  1.0000
  Se  Se5       1.0  0.63136  0.77273  0.90173  1.0000
  Se  Se6       1.0  0.36864  0.22727  0.09827  1.0000
  Se  Se7       1.0  0.91279  0.81385  0.12668  1.0000
  Se  Se8       1.0  0.08721  0.18615  0.87332  1.0000
  Se  Se9       1.0  0.32741  0.03966  0.45166  1.0000
  Se  Se10      1.0  0.67259  0.96034  0.54834  1.0000
  Se  Se11      1.0  0.65005  0.42256  0.59897  1.0000
  Se  Se12      1.0  0.34995  0.57744  0.40103  1.0000
  Se  Se13      1.0  0.15308  0.83892  0.15588  1.0000
  Se  Se14      1.0  0.84692  0.16108  0.84412  1.0000
  Se  Se15      1.0  0.89040  0.71614  0.59681  1.0000
  Se  Se16      1.0  0.10960  0.28386  0.40319  1.0000
  Se  Se17      1.0  0.49431  0.08888  0.29018  1.0000
  Se  Se18      1.0  0.50569  0.91112  0.70982  1.0000
