data_image0
_chemical_formula_structural       S8Sb4
_chemical_formula_sum              "S8 Sb4"
_cell_length_a       9.48647
_cell_length_b       7.285
_cell_length_c       6.97862
_cell_angle_alpha    54.7675
_cell_angle_beta     90
_cell_angle_gamma    90

_space_group_name_H-M_alt    "P 1"
_space_group_IT_number       1

loop_
  _space_group_symop_operation_xyz
  'x, y, z'

loop_
  _atom_site_type_symbol
  _atom_site_label
  _atom_site_symmetry_multiplicity
  _atom_site_fract_x
  _atom_site_fract_y
  _atom_site_fract_z
  _atom_site_occupancy
  S   S1        1.0  0.55714  0.74342  0.16162  1.0000
  S   S2        1.0  0.44286  0.74342  0.66162  1.0000
  S   S3        1.0  0.33315  0.00328  0.63273  1.0000
  S   S4        1.0  0.02264  0.04685  0.28148  1.0000
  S   S5        1.0  0.66685  0.00328  0.13273  1.0000
  S   S6        1.0  0.97736  0.04685  0.78148  1.0000
  S   S7        1.0  0.81277  0.58869  0.75465  1.0000
  S   S8        1.0  0.18723  0.58869  0.25465  1.0000
  Sb  Sb1       1.0  0.32372  0.93596  0.04094  1.0000
  Sb  Sb2       1.0  0.67628  0.93596  0.54094  1.0000
  Sb  Sb3       1.0  0.94264  0.76510  0.21188  1.0000
  Sb  Sb4       1.0  0.05736  0.76510  0.71188  1.0000
