data_image0
_chemical_formula_structural       Sb12S4
_chemical_formula_sum              "Sb12 S4"
_cell_length_a       9.79698
_cell_length_b       9.79698
_cell_length_c       9.79698
_cell_angle_alpha    94.9006
_cell_angle_beta     94.9006
_cell_angle_gamma    146.011

_space_group_name_H-M_alt    "P 1"
_space_group_IT_number       1

loop_
  _space_group_symop_operation_xyz
  'x, y, z'

loop_
  _atom_site_type_symbol
  _atom_site_label
  _atom_site_symmetry_multiplicity
  _atom_site_fract_x
  _atom_site_fract_y
  _atom_site_fract_z
  _atom_site_occupancy
  Sb  Sb1       1.0  0.14917  0.50000  0.64917  1.0000
  Sb  Sb2       1.0  0.50000  0.85083  0.35083  1.0000
  Sb  Sb3       1.0  0.50000  0.14917  0.64917  1.0000
  Sb  Sb4       1.0  0.85083  0.50000  0.35083  1.0000
  Sb  Sb5       1.0  0.25560  0.25560  0.82600  1.0000
  Sb  Sb6       1.0  0.57040  0.74440  0.00000  1.0000
  Sb  Sb7       1.0  0.74440  0.57040  0.00000  1.0000
  Sb  Sb8       1.0  0.42960  0.42960  0.17400  1.0000
  Sb  Sb9       1.0  0.29794  0.29794  0.54084  1.0000
  Sb  Sb10      1.0  0.24289  0.70206  0.00000  1.0000
  Sb  Sb11      1.0  0.70206  0.24289  0.00000  1.0000
  Sb  Sb12      1.0  0.75711  0.75711  0.45916  1.0000
  S   S1        1.0  0.63384  0.00000  0.63384  1.0000
  S   S2        1.0  0.00000  0.36616  0.36616  1.0000
  S   S3        1.0  0.00000  0.63384  0.63384  1.0000
  S   S4        1.0  0.36616  0.00000  0.36616  1.0000
