data_image0
_chemical_formula_structural       Sb4S18
_chemical_formula_sum              "Sb4 S18"
_cell_length_a       9.75746
_cell_length_b       9.75746
_cell_length_c       8.30462
_cell_angle_alpha    94.137
_cell_angle_beta     94.137
_cell_angle_gamma    81.5269

_space_group_name_H-M_alt    "P 1"
_space_group_IT_number       1

loop_
  _space_group_symop_operation_xyz
  'x, y, z'

loop_
  _atom_site_type_symbol
  _atom_site_label
  _atom_site_symmetry_multiplicity
  _atom_site_fract_x
  _atom_site_fract_y
  _atom_site_fract_z
  _atom_site_occupancy
  Sb  Sb1       1.0  0.34381  0.81598  0.09334  1.0000
  Sb  Sb2       1.0  0.18402  0.65619  0.40666  1.0000
  Sb  Sb3       1.0  0.65619  0.18402  0.90666  1.0000
  Sb  Sb4       1.0  0.81598  0.34381  0.59334  1.0000
  S   S1        1.0  0.46418  0.74084  0.48884  1.0000
  S   S2        1.0  0.25916  0.53582  0.01116  1.0000
  S   S3        1.0  0.67967  0.10343  0.59726  1.0000
  S   S4        1.0  0.89657  0.32033  0.90274  1.0000
  S   S5        1.0  0.32033  0.89657  0.40274  1.0000
  S   S6        1.0  0.10343  0.67967  0.09726  1.0000
  S   S7        1.0  0.10243  0.36705  0.59057  1.0000
  S   S8        1.0  0.63295  0.89757  0.90943  1.0000
  S   S9        1.0  0.89757  0.63295  0.40943  1.0000
  S   S10       1.0  0.36705  0.10243  0.09057  1.0000
  S   S11       1.0  0.10113  0.40777  0.36094  1.0000
  S   S12       1.0  0.59223  0.89887  0.13906  1.0000
  S   S13       1.0  0.89887  0.59223  0.63906  1.0000
  S   S14       1.0  0.40777  0.10113  0.86094  1.0000
  S   S15       1.0  0.74084  0.46418  0.98884  1.0000
  S   S16       1.0  0.53582  0.25916  0.51116  1.0000
  S   S17       1.0  0.40960  0.59040  0.25000  1.0000
  S   S18       1.0  0.59040  0.40960  0.75000  1.0000
