data_image0
_chemical_formula_structural       Se10Sb6
_chemical_formula_sum              "Se10 Sb6"
_cell_length_a       8.54102
_cell_length_b       8.54102
_cell_length_c       8.54102
_cell_angle_alpha    126.246
_cell_angle_beta     126.246
_cell_angle_gamma    79.4837

_space_group_name_H-M_alt    "P 1"
_space_group_IT_number       1

loop_
  _space_group_symop_operation_xyz
  'x, y, z'

loop_
  _atom_site_type_symbol
  _atom_site_label
  _atom_site_symmetry_multiplicity
  _atom_site_fract_x
  _atom_site_fract_y
  _atom_site_fract_z
  _atom_site_occupancy
  Se  Se1       1.0  0.51036  0.68626  0.50000  1.0000
  Se  Se2       1.0  0.48964  0.31374  0.50000  1.0000
  Se  Se3       1.0  0.50000  0.50000  0.00000  1.0000
  Se  Se4       1.0  0.00000  0.00000  0.00000  1.0000
  Se  Se5       1.0  0.18626  0.01036  0.50000  1.0000
  Se  Se6       1.0  0.01036  0.51036  0.82410  1.0000
  Se  Se7       1.0  0.68626  0.18626  0.17590  1.0000
  Se  Se8       1.0  0.31374  0.81374  0.82410  1.0000
  Se  Se9       1.0  0.98964  0.48964  0.17590  1.0000
  Se  Se10      1.0  0.81374  0.98964  0.50000  1.0000
  Sb  Sb1       1.0  0.82976  0.67024  0.50000  1.0000
  Sb  Sb2       1.0  0.67024  0.17024  0.84048  1.0000
  Sb  Sb3       1.0  0.32976  0.82976  0.15952  1.0000
  Sb  Sb4       1.0  0.17024  0.32976  0.50000  1.0000
  Sb  Sb5       1.0  0.25000  0.25000  0.00000  1.0000
  Sb  Sb6       1.0  0.75000  0.75000  0.00000  1.0000
