data_image0
_chemical_formula_structural       Se4Sb2
_chemical_formula_sum              "Se4 Sb2"
_cell_length_a       5.81278
_cell_length_b       5.81278
_cell_length_c       5.81278
_cell_angle_alpha    112.838
_cell_angle_beta     112.838
_cell_angle_gamma    102.93

_space_group_name_H-M_alt    "P 1"
_space_group_IT_number       1

loop_
  _space_group_symop_operation_xyz
  'x, y, z'

loop_
  _atom_site_type_symbol
  _atom_site_label
  _atom_site_symmetry_multiplicity
  _atom_site_fract_x
  _atom_site_fract_y
  _atom_site_fract_z
  _atom_site_occupancy
  Se  Se1       1.0  0.35432  0.85432  0.20864  1.0000
  Se  Se2       1.0  0.14568  0.35432  0.50000  1.0000
  Se  Se3       1.0  0.85432  0.64568  0.50000  1.0000
  Se  Se4       1.0  0.64568  0.14568  0.79136  1.0000
  Sb  Sb1       1.0  0.75000  0.75000  0.00000  1.0000
  Sb  Sb2       1.0  0.25000  0.25000  0.00000  1.0000
