data_image0
_chemical_formula_structural       Sb8Se16
_chemical_formula_sum              "Sb8 Se16"
_cell_length_a       7.98699
_cell_length_b       7.98699
_cell_length_c       11.3153
_cell_angle_alpha    90
_cell_angle_beta     90
_cell_angle_gamma    92.7961

_space_group_name_H-M_alt    "P 1"
_space_group_IT_number       1

loop_
  _space_group_symop_operation_xyz
  'x, y, z'

loop_
  _atom_site_type_symbol
  _atom_site_label
  _atom_site_symmetry_multiplicity
  _atom_site_fract_x
  _atom_site_fract_y
  _atom_site_fract_z
  _atom_site_occupancy
  Sb  Sb1       1.0  0.21134  0.21134  0.70724  1.0000
  Sb  Sb2       1.0  0.28866  0.28866  0.20724  1.0000
  Sb  Sb3       1.0  0.71134  0.71134  0.79276  1.0000
  Sb  Sb4       1.0  0.78866  0.78866  0.29276  1.0000
  Sb  Sb5       1.0  0.20860  0.79140  0.50000  1.0000
  Sb  Sb6       1.0  0.29140  0.70860  0.00000  1.0000
  Sb  Sb7       1.0  0.79140  0.20860  0.50000  1.0000
  Sb  Sb8       1.0  0.70860  0.29140  0.00000  1.0000
  Se  Se1       1.0  0.37165  0.62646  0.23690  1.0000
  Se  Se2       1.0  0.12835  0.87354  0.73690  1.0000
  Se  Se3       1.0  0.12646  0.87165  0.26310  1.0000
  Se  Se4       1.0  0.37354  0.62835  0.76310  1.0000
  Se  Se5       1.0  0.62835  0.37354  0.76310  1.0000
  Se  Se6       1.0  0.87165  0.12646  0.26310  1.0000
  Se  Se7       1.0  0.87354  0.12835  0.73690  1.0000
  Se  Se8       1.0  0.62646  0.37165  0.23690  1.0000
  Se  Se9       1.0  0.12797  0.38648  0.00251  1.0000
  Se  Se10      1.0  0.37203  0.11352  0.50251  1.0000
  Se  Se11      1.0  0.88648  0.62797  0.49749  1.0000
  Se  Se12      1.0  0.61352  0.87203  0.99749  1.0000
  Se  Se13      1.0  0.87203  0.61352  0.99749  1.0000
  Se  Se14      1.0  0.62797  0.88648  0.49749  1.0000
  Se  Se15      1.0  0.11352  0.37203  0.50251  1.0000
  Se  Se16      1.0  0.38648  0.12797  0.00251  1.0000
