data_image0
_chemical_formula_structural       SbSe4
_chemical_formula_sum              "Sb1 Se4"
_cell_length_a       8.72585
_cell_length_b       8.72585
_cell_length_c       8.72585
_cell_angle_alpha    27.4699
_cell_angle_beta     27.4699
_cell_angle_gamma    27.4699

_space_group_name_H-M_alt    "P 1"
_space_group_IT_number       1

loop_
  _space_group_symop_operation_xyz
  'x, y, z'

loop_
  _atom_site_type_symbol
  _atom_site_label
  _atom_site_symmetry_multiplicity
  _atom_site_fract_x
  _atom_site_fract_y
  _atom_site_fract_z
  _atom_site_occupancy
  Sb  Sb1       1.0  0.00000  0.00000  0.00000  1.0000
  Se  Se1       1.0  0.60138  0.60138  0.60138  1.0000
  Se  Se2       1.0  0.19110  0.19110  0.19110  1.0000
  Se  Se3       1.0  0.80890  0.80890  0.80890  1.0000
  Se  Se4       1.0  0.39862  0.39862  0.39862  1.0000
