data_image0
_chemical_formula_structural       Se4Sb4
_chemical_formula_sum              "Se4 Sb4"
_cell_length_a       6.00145
_cell_length_b       6.00145
_cell_length_c       6.00145
_cell_angle_alpha    90
_cell_angle_beta     90
_cell_angle_gamma    90

_space_group_name_H-M_alt    "P 1"
_space_group_IT_number       1

loop_
  _space_group_symop_operation_xyz
  'x, y, z'

loop_
  _atom_site_type_symbol
  _atom_site_label
  _atom_site_symmetry_multiplicity
  _atom_site_fract_x
  _atom_site_fract_y
  _atom_site_fract_z
  _atom_site_occupancy
  Se  Se1       1.0  0.86325  0.63675  0.36325  1.0000
  Se  Se2       1.0  0.63675  0.36325  0.86325  1.0000
  Se  Se3       1.0  0.36325  0.86325  0.63675  1.0000
  Se  Se4       1.0  0.13675  0.13675  0.13675  1.0000
  Sb  Sb1       1.0  0.20383  0.29617  0.70383  1.0000
  Sb  Sb2       1.0  0.29617  0.70383  0.20383  1.0000
  Sb  Sb3       1.0  0.70383  0.20383  0.29617  1.0000
  Sb  Sb4       1.0  0.79617  0.79617  0.79617  1.0000
