data_image0
_chemical_formula_structural       Sb6Se4
_chemical_formula_sum              "Sb6 Se4"
_cell_length_a       7.23296
_cell_length_b       7.23296
_cell_length_c       5.79569
_cell_angle_alpha    90
_cell_angle_beta     90
_cell_angle_gamma    90

_space_group_name_H-M_alt    "P 1"
_space_group_IT_number       1

loop_
  _space_group_symop_operation_xyz
  'x, y, z'

loop_
  _atom_site_type_symbol
  _atom_site_label
  _atom_site_symmetry_multiplicity
  _atom_site_fract_x
  _atom_site_fract_y
  _atom_site_fract_z
  _atom_site_occupancy
  Sb  Sb1       1.0  0.00000  0.00000  0.00000  1.0000
  Sb  Sb2       1.0  0.50000  0.50000  0.00000  1.0000
  Sb  Sb3       1.0  0.14815  0.64815  0.75762  1.0000
  Sb  Sb4       1.0  0.35185  0.14815  0.24238  1.0000
  Sb  Sb5       1.0  0.64815  0.85185  0.24238  1.0000
  Sb  Sb6       1.0  0.85185  0.35185  0.75762  1.0000
  Se  Se1       1.0  0.19883  0.69883  0.32744  1.0000
  Se  Se2       1.0  0.30117  0.19883  0.67256  1.0000
  Se  Se3       1.0  0.69883  0.80117  0.67256  1.0000
  Se  Se4       1.0  0.80117  0.30117  0.32744  1.0000
