data_image0
_chemical_formula_structural       Sb3Se4
_chemical_formula_sum              "Sb3 Se4"
_cell_length_a       8.14222
_cell_length_b       8.14222
_cell_length_c       7.24525
_cell_angle_alpha    66.5636
_cell_angle_beta     66.5636
_cell_angle_gamma    28.938

_space_group_name_H-M_alt    "P 1"
_space_group_IT_number       1

loop_
  _space_group_symop_operation_xyz
  'x, y, z'

loop_
  _atom_site_type_symbol
  _atom_site_label
  _atom_site_symmetry_multiplicity
  _atom_site_fract_x
  _atom_site_fract_y
  _atom_site_fract_z
  _atom_site_occupancy
  Sb  Sb1       1.0  0.24197  0.24197  0.77207  1.0000
  Sb  Sb2       1.0  0.75803  0.75803  0.22793  1.0000
  Sb  Sb3       1.0  0.50000  0.50000  0.50000  1.0000
  Se  Se1       1.0  0.87368  0.87368  0.48161  1.0000
  Se  Se2       1.0  0.12632  0.12632  0.51839  1.0000
  Se  Se3       1.0  0.36592  0.36592  0.95691  1.0000
  Se  Se4       1.0  0.63408  0.63408  0.04309  1.0000
