data_image0
_chemical_formula_structural       Sb2Se4
_chemical_formula_sum              "Sb2 Se4"
_cell_length_a       5.90636
_cell_length_b       5.90636
_cell_length_c       5.28916
_cell_angle_alpha    90
_cell_angle_beta     90
_cell_angle_gamma    129.365

_space_group_name_H-M_alt    "P 1"
_space_group_IT_number       1

loop_
  _space_group_symop_operation_xyz
  'x, y, z'

loop_
  _atom_site_type_symbol
  _atom_site_label
  _atom_site_symmetry_multiplicity
  _atom_site_fract_x
  _atom_site_fract_y
  _atom_site_fract_z
  _atom_site_occupancy
  Sb  Sb1       1.0  0.25714  0.25714  0.75000  1.0000
  Sb  Sb2       1.0  0.74286  0.74286  0.25000  1.0000
  Se  Se1       1.0  0.59505  0.89337  0.75000  1.0000
  Se  Se2       1.0  0.89337  0.59505  0.75000  1.0000
  Se  Se3       1.0  0.10663  0.40495  0.25000  1.0000
  Se  Se4       1.0  0.40495  0.10663  0.25000  1.0000
