data_image0
_chemical_formula_structural       Sb4Se12
_chemical_formula_sum              "Sb4 Se12"
_cell_length_a       13.3295
_cell_length_b       13.3295
_cell_length_c       5.54137
_cell_angle_alpha    90
_cell_angle_beta     90
_cell_angle_gamma    155.648

_space_group_name_H-M_alt    "P 1"
_space_group_IT_number       1

loop_
  _space_group_symop_operation_xyz
  'x, y, z'

loop_
  _atom_site_type_symbol
  _atom_site_label
  _atom_site_symmetry_multiplicity
  _atom_site_fract_x
  _atom_site_fract_y
  _atom_site_fract_z
  _atom_site_occupancy
  Sb  Sb1       1.0  0.65207  0.34793  0.00000  1.0000
  Sb  Sb2       1.0  0.34793  0.65207  0.00000  1.0000
  Sb  Sb3       1.0  0.15207  0.84793  0.50000  1.0000
  Sb  Sb4       1.0  0.84793  0.15207  0.50000  1.0000
  Se  Se1       1.0  0.63493  0.63493  0.15691  1.0000
  Se  Se2       1.0  0.13493  0.13493  0.34309  1.0000
  Se  Se3       1.0  0.86507  0.86507  0.65691  1.0000
  Se  Se4       1.0  0.38506  0.61494  0.50000  1.0000
  Se  Se5       1.0  0.99870  0.49870  0.75000  1.0000
  Se  Se6       1.0  0.88506  0.11494  0.00000  1.0000
  Se  Se7       1.0  0.00130  0.50130  0.25000  1.0000
  Se  Se8       1.0  0.36507  0.36507  0.84309  1.0000
  Se  Se9       1.0  0.61494  0.38506  0.50000  1.0000
  Se  Se10      1.0  0.11494  0.88506  0.00000  1.0000
  Se  Se11      1.0  0.50130  0.00130  0.25000  1.0000
  Se  Se12      1.0  0.49870  0.99870  0.75000  1.0000
