data_image0
_chemical_formula_structural       Sb2S4
_chemical_formula_sum              "Sb2 S4"
_cell_length_a       5.57701
_cell_length_b       5.57701
_cell_length_c       5.57701
_cell_angle_alpha    110.807
_cell_angle_beta     110.807
_cell_angle_gamma    106.832

_space_group_name_H-M_alt    "P 1"
_space_group_IT_number       1

loop_
  _space_group_symop_operation_xyz
  'x, y, z'

loop_
  _atom_site_type_symbol
  _atom_site_label
  _atom_site_symmetry_multiplicity
  _atom_site_fract_x
  _atom_site_fract_y
  _atom_site_fract_z
  _atom_site_occupancy
  Sb  Sb1       1.0  0.75000  0.75000  0.00000  1.0000
  Sb  Sb2       1.0  0.25000  0.25000  0.00000  1.0000
  S   S1        1.0  0.38270  0.11730  0.50000  1.0000
  S   S2        1.0  0.88270  0.38270  0.26541  1.0000
  S   S3        1.0  0.61730  0.88270  0.50000  1.0000
  S   S4        1.0  0.11730  0.61730  0.73459  1.0000
