data_image0
_chemical_formula_structural       Sb2S6
_chemical_formula_sum              "Sb2 S6"
_cell_length_a       6.87612
_cell_length_b       6.87612
_cell_length_c       6.87612
_cell_angle_alpha    132.181
_cell_angle_beta     132.181
_cell_angle_gamma    69.9441

_space_group_name_H-M_alt    "P 1"
_space_group_IT_number       1

loop_
  _space_group_symop_operation_xyz
  'x, y, z'

loop_
  _atom_site_type_symbol
  _atom_site_label
  _atom_site_symmetry_multiplicity
  _atom_site_fract_x
  _atom_site_fract_y
  _atom_site_fract_z
  _atom_site_occupancy
  Sb  Sb1       1.0  0.75000  0.25000  0.50000  1.0000
  Sb  Sb2       1.0  0.25000  0.75000  0.50000  1.0000
  S   S1        1.0  0.75000  0.75000  0.00000  1.0000
  S   S2        1.0  0.25000  0.25000  0.00000  1.0000
  S   S3        1.0  0.12858  0.62858  0.75715  1.0000
  S   S4        1.0  0.87142  0.37142  0.24285  1.0000
  S   S5        1.0  0.62858  0.87142  0.50000  1.0000
  S   S6        1.0  0.37142  0.12858  0.50000  1.0000
