data_image0
_chemical_formula_structural       Se8Sb4
_chemical_formula_sum              "Se8 Sb4"
_cell_length_a       7.23659
_cell_length_b       7.54431
_cell_length_c       7.29791
_cell_angle_alpha    65.8058
_cell_angle_beta     90
_cell_angle_gamma    90

_space_group_name_H-M_alt    "P 1"
_space_group_IT_number       1

loop_
  _space_group_symop_operation_xyz
  'x, y, z'

loop_
  _atom_site_type_symbol
  _atom_site_label
  _atom_site_symmetry_multiplicity
  _atom_site_fract_x
  _atom_site_fract_y
  _atom_site_fract_z
  _atom_site_occupancy
  Se  Se1       1.0  0.11874  0.04167  0.37650  1.0000
  Se  Se2       1.0  0.61874  0.95833  0.12350  1.0000
  Se  Se3       1.0  0.88126  0.95833  0.62350  1.0000
  Se  Se4       1.0  0.38126  0.04167  0.87650  1.0000
  Se  Se5       1.0  0.72296  0.47771  0.60753  1.0000
  Se  Se6       1.0  0.22296  0.52229  0.89247  1.0000
  Se  Se7       1.0  0.27704  0.52229  0.39247  1.0000
  Se  Se8       1.0  0.77704  0.47771  0.10753  1.0000
  Sb  Sb1       1.0  0.88885  0.24244  0.94349  1.0000
  Sb  Sb2       1.0  0.38885  0.75756  0.55651  1.0000
  Sb  Sb3       1.0  0.11115  0.75756  0.05651  1.0000
  Sb  Sb4       1.0  0.61115  0.24244  0.44349  1.0000
