data_image0
_chemical_formula_structural       Sb10Se6
_chemical_formula_sum              "Sb10 Se6"
_cell_length_a       8.98209
_cell_length_b       8.98209
_cell_length_c       8.98209
_cell_angle_alpha    95.9992
_cell_angle_beta     95.9992
_cell_angle_gamma    142.276

_space_group_name_H-M_alt    "P 1"
_space_group_IT_number       1

loop_
  _space_group_symop_operation_xyz
  'x, y, z'

loop_
  _atom_site_type_symbol
  _atom_site_label
  _atom_site_symmetry_multiplicity
  _atom_site_fract_x
  _atom_site_fract_y
  _atom_site_fract_z
  _atom_site_occupancy
  Sb  Sb1       1.0  0.56797  0.24490  0.81287  1.0000
  Sb  Sb2       1.0  0.43203  0.75510  0.18713  1.0000
  Sb  Sb3       1.0  0.75510  0.56797  0.32307  1.0000
  Sb  Sb4       1.0  0.24490  0.43203  0.67693  1.0000
  Sb  Sb5       1.0  0.93203  0.74490  0.67693  1.0000
  Sb  Sb6       1.0  0.25510  0.93203  0.18713  1.0000
  Sb  Sb7       1.0  0.25000  0.75000  0.50000  1.0000
  Sb  Sb8       1.0  0.75000  0.25000  0.50000  1.0000
  Sb  Sb9       1.0  0.06797  0.25510  0.32307  1.0000
  Sb  Sb10      1.0  0.74490  0.06797  0.81287  1.0000
  Se  Se1       1.0  0.80398  0.30398  0.10796  1.0000
  Se  Se2       1.0  0.69602  0.80398  0.50000  1.0000
  Se  Se3       1.0  0.30398  0.19602  0.50000  1.0000
  Se  Se4       1.0  0.19602  0.69602  0.89204  1.0000
  Se  Se5       1.0  0.75000  0.75000  0.00000  1.0000
  Se  Se6       1.0  0.25000  0.25000  0.00000  1.0000
