data_image0
_chemical_formula_structural       Se8Sb4
_chemical_formula_sum              "Se8 Sb4"
_cell_length_a       10.3285
_cell_length_b       6.73431
_cell_length_c       7.32475
_cell_angle_alpha    75.6975
_cell_angle_beta     90
_cell_angle_gamma    90

_space_group_name_H-M_alt    "P 1"
_space_group_IT_number       1

loop_
  _space_group_symop_operation_xyz
  'x, y, z'

loop_
  _atom_site_type_symbol
  _atom_site_label
  _atom_site_symmetry_multiplicity
  _atom_site_fract_x
  _atom_site_fract_y
  _atom_site_fract_z
  _atom_site_occupancy
  Se  Se1       1.0  0.46201  0.66680  0.28443  1.0000
  Se  Se2       1.0  0.53799  0.66680  0.78443  1.0000
  Se  Se3       1.0  0.35956  0.89580  0.74518  1.0000
  Se  Se4       1.0  0.94493  0.11470  0.25818  1.0000
  Se  Se5       1.0  0.64044  0.89580  0.24518  1.0000
  Se  Se6       1.0  0.05507  0.11470  0.75818  1.0000
  Se  Se7       1.0  0.86951  0.62347  0.67406  1.0000
  Se  Se8       1.0  0.13049  0.62347  0.17406  1.0000
  Sb  Sb1       1.0  0.29805  0.92710  0.09082  1.0000
  Sb  Sb2       1.0  0.70195  0.92710  0.59082  1.0000
  Sb  Sb3       1.0  0.93110  0.85544  0.03064  1.0000
  Sb  Sb4       1.0  0.06890  0.85544  0.53064  1.0000
