data_image0
_chemical_formula_structural       Sb9Tl8
_chemical_formula_sum              "Sb9 Tl8"
_cell_length_a       10.0502
_cell_length_b       10.0502
_cell_length_c       10.0502
_cell_angle_alpha    60
_cell_angle_beta     60
_cell_angle_gamma    60

_space_group_name_H-M_alt    "P 1"
_space_group_IT_number       1

loop_
  _space_group_symop_operation_xyz
  'x, y, z'

loop_
  _atom_site_type_symbol
  _atom_site_label
  _atom_site_symmetry_multiplicity
  _atom_site_fract_x
  _atom_site_fract_y
  _atom_site_fract_z
  _atom_site_occupancy
  Sb  Sb1       1.0  0.50000  0.50000  0.50000  1.0000
  Sb  Sb2       1.0  0.89202  0.32393  0.89202  1.0000
  Sb  Sb3       1.0  0.10798  0.10798  0.67607  1.0000
  Sb  Sb4       1.0  0.67607  0.10798  0.10798  1.0000
  Sb  Sb5       1.0  0.10798  0.10798  0.10798  1.0000
  Sb  Sb6       1.0  0.32393  0.89202  0.89202  1.0000
  Sb  Sb7       1.0  0.89202  0.89202  0.89202  1.0000
  Sb  Sb8       1.0  0.89202  0.89202  0.32393  1.0000
  Sb  Sb9       1.0  0.10798  0.67607  0.10798  1.0000
  Tl  Tl1       1.0  0.75000  0.75000  0.75000  1.0000
  Tl  Tl2       1.0  0.25000  0.25000  0.25000  1.0000
  Tl  Tl3       1.0  0.28538  0.28538  0.71462  1.0000
  Tl  Tl4       1.0  0.28538  0.71462  0.71462  1.0000
  Tl  Tl5       1.0  0.71462  0.28538  0.28538  1.0000
  Tl  Tl6       1.0  0.28538  0.71462  0.28538  1.0000
  Tl  Tl7       1.0  0.71462  0.28538  0.71462  1.0000
  Tl  Tl8       1.0  0.71462  0.71462  0.28538  1.0000
