data_image0
_chemical_formula_structural       Cl4Sc4
_chemical_formula_sum              "Cl4 Sc4"
_cell_length_a       5.57622
_cell_length_b       5.57622
_cell_length_c       5.57622
_cell_angle_alpha    90
_cell_angle_beta     90
_cell_angle_gamma    90

_space_group_name_H-M_alt    "P 1"
_space_group_IT_number       1

loop_
  _space_group_symop_operation_xyz
  'x, y, z'

loop_
  _atom_site_type_symbol
  _atom_site_label
  _atom_site_symmetry_multiplicity
  _atom_site_fract_x
  _atom_site_fract_y
  _atom_site_fract_z
  _atom_site_occupancy
  Cl  Cl1       1.0  0.91275  0.58725  0.41275  1.0000
  Cl  Cl2       1.0  0.58725  0.41275  0.91275  1.0000
  Cl  Cl3       1.0  0.41275  0.91275  0.58725  1.0000
  Cl  Cl4       1.0  0.08725  0.08725  0.08725  1.0000
  Sc  Sc1       1.0  0.17212  0.32788  0.67212  1.0000
  Sc  Sc2       1.0  0.32788  0.67212  0.17212  1.0000
  Sc  Sc3       1.0  0.67212  0.17212  0.32788  1.0000
  Sc  Sc4       1.0  0.82788  0.82788  0.82788  1.0000
