data_image0
_chemical_formula_structural       Sb5Tl13
_chemical_formula_sum              "Sb5 Tl13"
_cell_length_a       16.57
_cell_length_b       16.57
_cell_length_c       7.30491
_cell_angle_alpha    72.9843
_cell_angle_beta     72.9843
_cell_angle_gamma    17.335

_space_group_name_H-M_alt    "P 1"
_space_group_IT_number       1

loop_
  _space_group_symop_operation_xyz
  'x, y, z'

loop_
  _atom_site_type_symbol
  _atom_site_label
  _atom_site_symmetry_multiplicity
  _atom_site_fract_x
  _atom_site_fract_y
  _atom_site_fract_z
  _atom_site_occupancy
  Sb  Sb1       1.0  0.00000  0.00000  0.00000  1.0000
  Sb  Sb2       1.0  0.10490  0.10490  0.33772  1.0000
  Sb  Sb3       1.0  0.89510  0.89510  0.66228  1.0000
  Sb  Sb4       1.0  0.31921  0.31921  0.28992  1.0000
  Sb  Sb5       1.0  0.68079  0.68079  0.71008  1.0000
  Tl  Tl1       1.0  0.00000  0.00000  0.50000  1.0000
  Tl  Tl2       1.0  0.11108  0.11108  0.88143  1.0000
  Tl  Tl3       1.0  0.88892  0.88892  0.11857  1.0000
  Tl  Tl4       1.0  0.20752  0.20752  0.41059  1.0000
  Tl  Tl5       1.0  0.79248  0.79248  0.58941  1.0000
  Tl  Tl6       1.0  0.22285  0.22285  0.88372  1.0000
  Tl  Tl7       1.0  0.77715  0.77715  0.11628  1.0000
  Tl  Tl8       1.0  0.33549  0.33549  0.81511  1.0000
  Tl  Tl9       1.0  0.66451  0.66451  0.18489  1.0000
  Tl  Tl10      1.0  0.43001  0.43001  0.35465  1.0000
  Tl  Tl11      1.0  0.56999  0.56999  0.64535  1.0000
  Tl  Tl12      1.0  0.45510  0.45510  0.82902  1.0000
  Tl  Tl13      1.0  0.54490  0.54490  0.17098  1.0000
