data_image0
_chemical_formula_structural       Sb2Tl6
_chemical_formula_sum              "Sb2 Tl6"
_cell_length_a       5.31646
_cell_length_b       6.71578
_cell_length_c       7.25903
_cell_angle_alpha    90
_cell_angle_beta     90
_cell_angle_gamma    90

_space_group_name_H-M_alt    "P 1"
_space_group_IT_number       1

loop_
  _space_group_symop_operation_xyz
  'x, y, z'

loop_
  _atom_site_type_symbol
  _atom_site_label
  _atom_site_symmetry_multiplicity
  _atom_site_fract_x
  _atom_site_fract_y
  _atom_site_fract_z
  _atom_site_occupancy
  Sb  Sb1       1.0  0.50000  0.63025  0.50000  1.0000
  Sb  Sb2       1.0  0.00000  0.36975  0.00000  1.0000
  Tl  Tl1       1.0  0.50000  0.18255  0.75621  1.0000
  Tl  Tl2       1.0  0.50000  0.18255  0.24379  1.0000
  Tl  Tl3       1.0  0.00000  0.81745  0.74379  1.0000
  Tl  Tl4       1.0  0.00000  0.81745  0.25621  1.0000
  Tl  Tl5       1.0  0.00000  0.34106  0.50000  1.0000
  Tl  Tl6       1.0  0.50000  0.65894  0.00000  1.0000
