data_image0
_chemical_formula_structural       SbTl2
_chemical_formula_sum              "Sb1 Tl2"
_cell_length_a       7.1738
_cell_length_b       7.1738
_cell_length_c       7.1738
_cell_angle_alpha    149.6
_cell_angle_beta     149.6
_cell_angle_gamma    43.5284

_space_group_name_H-M_alt    "P 1"
_space_group_IT_number       1

loop_
  _space_group_symop_operation_xyz
  'x, y, z'

loop_
  _atom_site_type_symbol
  _atom_site_label
  _atom_site_symmetry_multiplicity
  _atom_site_fract_x
  _atom_site_fract_y
  _atom_site_fract_z
  _atom_site_occupancy
  Sb  Sb1       1.0  0.00000  0.00000  0.00000  1.0000
  Tl  Tl1       1.0  0.65381  0.65381  0.00000  1.0000
  Tl  Tl2       1.0  0.34619  0.34619  0.00000  1.0000
