data_image0
_chemical_formula_structural       Sb4Tl12
_chemical_formula_sum              "Sb4 Tl12"
_cell_length_a       10.7047
_cell_length_b       10.7047
_cell_length_c       7.01239
_cell_angle_alpha    90
_cell_angle_beta     90
_cell_angle_gamma    141.426

_space_group_name_H-M_alt    "P 1"
_space_group_IT_number       1

loop_
  _space_group_symop_operation_xyz
  'x, y, z'

loop_
  _atom_site_type_symbol
  _atom_site_label
  _atom_site_symmetry_multiplicity
  _atom_site_fract_x
  _atom_site_fract_y
  _atom_site_fract_z
  _atom_site_occupancy
  Sb  Sb1       1.0  0.63177  0.36823  0.00000  1.0000
  Sb  Sb2       1.0  0.36823  0.63177  0.00000  1.0000
  Sb  Sb3       1.0  0.13177  0.86823  0.50000  1.0000
  Sb  Sb4       1.0  0.86823  0.13177  0.50000  1.0000
  Tl  Tl1       1.0  0.69957  0.69957  0.20179  1.0000
  Tl  Tl2       1.0  0.19957  0.19957  0.29821  1.0000
  Tl  Tl3       1.0  0.80043  0.80043  0.70179  1.0000
  Tl  Tl4       1.0  0.38001  0.61999  0.50000  1.0000
  Tl  Tl5       1.0  0.00621  0.50621  0.75000  1.0000
  Tl  Tl6       1.0  0.88001  0.11999  0.00000  1.0000
  Tl  Tl7       1.0  0.99379  0.49379  0.25000  1.0000
  Tl  Tl8       1.0  0.30043  0.30043  0.79821  1.0000
  Tl  Tl9       1.0  0.61999  0.38001  0.50000  1.0000
  Tl  Tl10      1.0  0.11999  0.88001  0.00000  1.0000
  Tl  Tl11      1.0  0.49379  0.99379  0.25000  1.0000
  Tl  Tl12      1.0  0.50621  0.00621  0.75000  1.0000
