data_image0
_chemical_formula_structural       Sb6Tl16
_chemical_formula_sum              "Sb6 Tl16"
_cell_length_a       7.63445
_cell_length_b       6.31793
_cell_length_c       17.1798
_cell_angle_alpha    64.2355
_cell_angle_beta     90
_cell_angle_gamma    90

_space_group_name_H-M_alt    "P 1"
_space_group_IT_number       1

loop_
  _space_group_symop_operation_xyz
  'x, y, z'

loop_
  _atom_site_type_symbol
  _atom_site_label
  _atom_site_symmetry_multiplicity
  _atom_site_fract_x
  _atom_site_fract_y
  _atom_site_fract_z
  _atom_site_occupancy
  Sb  Sb1       1.0  0.44572  0.84736  0.72502  1.0000
  Sb  Sb2       1.0  0.55428  0.15264  0.27498  1.0000
  Sb  Sb3       1.0  0.50000  0.00000  0.00000  1.0000
  Sb  Sb4       1.0  0.94572  0.15264  0.77498  1.0000
  Sb  Sb5       1.0  0.05428  0.84736  0.22502  1.0000
  Sb  Sb6       1.0  0.00000  0.00000  0.50000  1.0000
  Tl  Tl1       1.0  0.63003  0.72758  0.20211  1.0000
  Tl  Tl2       1.0  0.66286  0.32372  0.62130  1.0000
  Tl  Tl3       1.0  0.66806  0.72260  0.89952  1.0000
  Tl  Tl4       1.0  0.62716  0.21093  0.44279  1.0000
  Tl  Tl5       1.0  0.87284  0.21093  0.94279  1.0000
  Tl  Tl6       1.0  0.83714  0.32372  0.12130  1.0000
  Tl  Tl7       1.0  0.83194  0.72260  0.39952  1.0000
  Tl  Tl8       1.0  0.86997  0.72758  0.70211  1.0000
  Tl  Tl9       1.0  0.16286  0.67628  0.87870  1.0000
  Tl  Tl10      1.0  0.12716  0.78907  0.05721  1.0000
  Tl  Tl11      1.0  0.16806  0.27740  0.60048  1.0000
  Tl  Tl12      1.0  0.13003  0.27242  0.29789  1.0000
  Tl  Tl13      1.0  0.33194  0.27740  0.10048  1.0000
  Tl  Tl14      1.0  0.36997  0.27242  0.79789  1.0000
  Tl  Tl15      1.0  0.33714  0.67628  0.37870  1.0000
  Tl  Tl16      1.0  0.37284  0.78907  0.55721  1.0000
