data_image0
_chemical_formula_structural       Tl12Sb4
_chemical_formula_sum              "Tl12 Sb4"
_cell_length_a       8.87494
_cell_length_b       8.87494
_cell_length_c       7.62846
_cell_angle_alpha    90
_cell_angle_beta     90
_cell_angle_gamma    90

_space_group_name_H-M_alt    "P 1"
_space_group_IT_number       1

loop_
  _space_group_symop_operation_xyz
  'x, y, z'

loop_
  _atom_site_type_symbol
  _atom_site_label
  _atom_site_symmetry_multiplicity
  _atom_site_fract_x
  _atom_site_fract_y
  _atom_site_fract_z
  _atom_site_occupancy
  Tl  Tl1       1.0  0.50000  0.00000  0.00000  1.0000
  Tl  Tl2       1.0  0.50000  0.00000  0.50000  1.0000
  Tl  Tl3       1.0  0.00000  0.50000  0.00000  1.0000
  Tl  Tl4       1.0  0.00000  0.50000  0.50000  1.0000
  Tl  Tl5       1.0  0.67499  0.32501  0.74911  1.0000
  Tl  Tl6       1.0  0.82501  0.82501  0.75089  1.0000
  Tl  Tl7       1.0  0.17499  0.17499  0.75089  1.0000
  Tl  Tl8       1.0  0.32501  0.67499  0.74911  1.0000
  Tl  Tl9       1.0  0.32501  0.67499  0.25089  1.0000
  Tl  Tl10      1.0  0.67499  0.32501  0.25089  1.0000
  Tl  Tl11      1.0  0.82501  0.82501  0.24911  1.0000
  Tl  Tl12      1.0  0.17499  0.17499  0.24911  1.0000
  Sb  Sb1       1.0  0.88105  0.11895  0.00000  1.0000
  Sb  Sb2       1.0  0.61895  0.61895  0.50000  1.0000
  Sb  Sb3       1.0  0.38105  0.38105  0.50000  1.0000
  Sb  Sb4       1.0  0.11895  0.88105  0.00000  1.0000
