data_image0
_chemical_formula_structural       Sb9Tl13
_chemical_formula_sum              "Sb9 Tl13"
_cell_length_a       8.98509
_cell_length_b       8.98509
_cell_length_c       11.5031
_cell_angle_alpha    60.96
_cell_angle_beta     60.96
_cell_angle_gamma    75.1414

_space_group_name_H-M_alt    "P 1"
_space_group_IT_number       1

loop_
  _space_group_symop_operation_xyz
  'x, y, z'

loop_
  _atom_site_type_symbol
  _atom_site_label
  _atom_site_symmetry_multiplicity
  _atom_site_fract_x
  _atom_site_fract_y
  _atom_site_fract_z
  _atom_site_occupancy
  Sb  Sb1       1.0  0.27269  0.27269  0.15208  1.0000
  Sb  Sb2       1.0  0.69518  0.25213  0.34195  1.0000
  Sb  Sb3       1.0  0.75333  0.75333  0.18624  1.0000
  Sb  Sb4       1.0  0.24667  0.24667  0.81376  1.0000
  Sb  Sb5       1.0  0.50000  0.50000  0.50000  1.0000
  Sb  Sb6       1.0  0.72731  0.72731  0.84792  1.0000
  Sb  Sb7       1.0  0.25213  0.69518  0.34195  1.0000
  Sb  Sb8       1.0  0.74787  0.30482  0.65805  1.0000
  Sb  Sb9       1.0  0.30482  0.74787  0.65805  1.0000
  Tl  Tl1       1.0  0.51975  0.98927  0.67366  1.0000
  Tl  Tl2       1.0  0.98927  0.51975  0.67366  1.0000
  Tl  Tl3       1.0  0.48814  0.48814  0.16490  1.0000
  Tl  Tl4       1.0  0.78579  0.78579  0.44314  1.0000
  Tl  Tl5       1.0  0.48025  0.01073  0.32634  1.0000
  Tl  Tl6       1.0  0.83111  0.16889  0.00000  1.0000
  Tl  Tl7       1.0  0.21421  0.21421  0.55686  1.0000
  Tl  Tl8       1.0  0.51186  0.51186  0.83510  1.0000
  Tl  Tl9       1.0  0.16889  0.83111  0.00000  1.0000
  Tl  Tl10      1.0  0.00000  0.00000  0.50000  1.0000
  Tl  Tl11      1.0  0.01073  0.48025  0.32634  1.0000
  Tl  Tl12      1.0  0.00000  0.50000  0.00000  1.0000
  Tl  Tl13      1.0  0.50000  0.00000  0.00000  1.0000
