data_image0
_chemical_formula_structural       Sb4Tl18
_chemical_formula_sum              "Sb4 Tl18"
_cell_length_a       10.2822
_cell_length_b       8.65837
_cell_length_c       8.62671
_cell_angle_alpha    88.067
_cell_angle_beta     85.4779
_cell_angle_gamma    84.054

_space_group_name_H-M_alt    "P 1"
_space_group_IT_number       1

loop_
  _space_group_symop_operation_xyz
  'x, y, z'

loop_
  _atom_site_type_symbol
  _atom_site_label
  _atom_site_symmetry_multiplicity
  _atom_site_fract_x
  _atom_site_fract_y
  _atom_site_fract_z
  _atom_site_occupancy
  Sb  Sb1       1.0  0.08753  0.14533  0.12526  1.0000
  Sb  Sb2       1.0  0.91247  0.85467  0.87474  1.0000
  Sb  Sb3       1.0  0.42415  0.38175  0.35051  1.0000
  Sb  Sb4       1.0  0.57585  0.61825  0.64949  1.0000
  Tl  Tl1       1.0  0.90207  0.21296  0.43781  1.0000
  Tl  Tl2       1.0  0.09793  0.78704  0.56219  1.0000
  Tl  Tl3       1.0  0.28126  0.48459  0.69548  1.0000
  Tl  Tl4       1.0  0.71874  0.51541  0.30452  1.0000
  Tl  Tl5       1.0  0.62553  0.75027  0.98724  1.0000
  Tl  Tl6       1.0  0.37447  0.24973  0.01276  1.0000
  Tl  Tl7       1.0  0.92106  0.84854  0.23952  1.0000
  Tl  Tl8       1.0  0.07894  0.15146  0.76048  1.0000
  Tl  Tl9       1.0  0.25605  0.10033  0.41568  1.0000
  Tl  Tl10      1.0  0.74395  0.89967  0.58432  1.0000
  Tl  Tl11      1.0  0.58744  0.25326  0.65862  1.0000
  Tl  Tl12      1.0  0.41256  0.74674  0.34138  1.0000
  Tl  Tl13      1.0  0.21185  0.79163  0.01090  1.0000
  Tl  Tl14      1.0  0.78815  0.20837  0.98910  1.0000
  Tl  Tl15      1.0  0.88292  0.51180  0.72280  1.0000
  Tl  Tl16      1.0  0.11708  0.48820  0.27720  1.0000
  Tl  Tl17      1.0  0.59980  0.05981  0.26941  1.0000
  Tl  Tl18      1.0  0.40020  0.94019  0.73059  1.0000
