data_image0
_chemical_formula_structural       Sb4Tl6
_chemical_formula_sum              "Sb4 Tl6"
_cell_length_a       8.10477
_cell_length_b       8.10477
_cell_length_c       8.10477
_cell_angle_alpha    131.539
_cell_angle_beta     117.935
_cell_angle_gamma    82.4382

_space_group_name_H-M_alt    "P 1"
_space_group_IT_number       1

loop_
  _space_group_symop_operation_xyz
  'x, y, z'

loop_
  _atom_site_type_symbol
  _atom_site_label
  _atom_site_symmetry_multiplicity
  _atom_site_fract_x
  _atom_site_fract_y
  _atom_site_fract_z
  _atom_site_occupancy
  Sb  Sb1       1.0  0.60814  0.36919  0.23894  1.0000
  Sb  Sb2       1.0  0.39186  0.63081  0.76106  1.0000
  Sb  Sb3       1.0  0.86975  0.13081  0.73894  1.0000
  Sb  Sb4       1.0  0.13025  0.86919  0.26106  1.0000
  Tl  Tl1       1.0  0.51111  0.87459  0.63652  1.0000
  Tl  Tl2       1.0  0.48889  0.12541  0.36348  1.0000
  Tl  Tl3       1.0  0.23807  0.37459  0.86348  1.0000
  Tl  Tl4       1.0  0.76193  0.62541  0.13652  1.0000
  Tl  Tl5       1.0  1.00000  0.75000  0.75000  1.0000
  Tl  Tl6       1.0  0.00000  0.25000  0.25000  1.0000
