data_image0
_chemical_formula_structural       Sb6Tl10
_chemical_formula_sum              "Sb6 Tl10"
_cell_length_a       4.67411
_cell_length_b       7.32992
_cell_length_c       14.9535
_cell_angle_alpha    90
_cell_angle_beta     90
_cell_angle_gamma    90

_space_group_name_H-M_alt    "P 1"
_space_group_IT_number       1

loop_
  _space_group_symop_operation_xyz
  'x, y, z'

loop_
  _atom_site_type_symbol
  _atom_site_label
  _atom_site_symmetry_multiplicity
  _atom_site_fract_x
  _atom_site_fract_y
  _atom_site_fract_z
  _atom_site_occupancy
  Sb  Sb1       1.0  0.50000  0.21988  0.89533  1.0000
  Sb  Sb2       1.0  0.50000  0.71988  0.60467  1.0000
  Sb  Sb3       1.0  0.00000  0.50000  0.50000  1.0000
  Sb  Sb4       1.0  0.00000  0.00000  0.00000  1.0000
  Sb  Sb5       1.0  0.50000  0.78012  0.10467  1.0000
  Sb  Sb6       1.0  0.50000  0.28012  0.39533  1.0000
  Tl  Tl1       1.0  0.50000  0.73752  0.37423  1.0000
  Tl  Tl2       1.0  0.50000  0.26248  0.62577  1.0000
  Tl  Tl3       1.0  0.00000  0.04627  0.76278  1.0000
  Tl  Tl4       1.0  0.50000  0.76248  0.87423  1.0000
  Tl  Tl5       1.0  0.00000  0.45373  0.26278  1.0000
  Tl  Tl6       1.0  0.00000  0.95373  0.23722  1.0000
  Tl  Tl7       1.0  0.00000  0.54627  0.73722  1.0000
  Tl  Tl8       1.0  0.00000  0.50000  0.00000  1.0000
  Tl  Tl9       1.0  0.00000  0.00000  0.50000  1.0000
  Tl  Tl10      1.0  0.50000  0.23752  0.12577  1.0000
