data_image0
_chemical_formula_structural       Sb6Tl4
_chemical_formula_sum              "Sb6 Tl4"
_cell_length_a       7.89409
_cell_length_b       7.89409
_cell_length_c       5.34364
_cell_angle_alpha    90
_cell_angle_beta     90
_cell_angle_gamma    90

_space_group_name_H-M_alt    "P 1"
_space_group_IT_number       1

loop_
  _space_group_symop_operation_xyz
  'x, y, z'

loop_
  _atom_site_type_symbol
  _atom_site_label
  _atom_site_symmetry_multiplicity
  _atom_site_fract_x
  _atom_site_fract_y
  _atom_site_fract_z
  _atom_site_occupancy
  Sb  Sb1       1.0  0.00000  0.00000  0.00000  1.0000
  Sb  Sb2       1.0  0.50000  0.50000  0.00000  1.0000
  Sb  Sb3       1.0  0.13038  0.63038  0.99919  1.0000
  Sb  Sb4       1.0  0.36962  0.13038  0.00081  1.0000
  Sb  Sb5       1.0  0.63038  0.86962  0.00081  1.0000
  Sb  Sb6       1.0  0.86962  0.36962  0.99919  1.0000
  Tl  Tl1       1.0  0.31878  0.81878  0.50205  1.0000
  Tl  Tl2       1.0  0.18122  0.31878  0.49795  1.0000
  Tl  Tl3       1.0  0.81878  0.68122  0.49795  1.0000
  Tl  Tl4       1.0  0.68122  0.18122  0.50205  1.0000
