data_image0
_chemical_formula_structural       SbTl4
_chemical_formula_sum              "Sb1 Tl4"
_cell_length_a       6.35339
_cell_length_b       6.35339
_cell_length_c       6.35339
_cell_angle_alpha    97.0826
_cell_angle_beta     97.0826
_cell_angle_gamma    138.886

_space_group_name_H-M_alt    "P 1"
_space_group_IT_number       1

loop_
  _space_group_symop_operation_xyz
  'x, y, z'

loop_
  _atom_site_type_symbol
  _atom_site_label
  _atom_site_symmetry_multiplicity
  _atom_site_fract_x
  _atom_site_fract_y
  _atom_site_fract_z
  _atom_site_occupancy
  Sb  Sb1       1.0  0.00000  0.00000  0.00000  1.0000
  Tl  Tl1       1.0  0.59202  0.78649  0.37851  1.0000
  Tl  Tl2       1.0  0.40798  0.21351  0.62149  1.0000
  Tl  Tl3       1.0  0.21351  0.59202  0.80553  1.0000
  Tl  Tl4       1.0  0.78649  0.40798  0.19447  1.0000
