data_image0
_chemical_formula_structural       Tl10Sb6
_chemical_formula_sum              "Tl10 Sb6"
_cell_length_a       9.83674
_cell_length_b       9.83674
_cell_length_c       9.83674
_cell_angle_alpha    131.704
_cell_angle_beta     131.704
_cell_angle_gamma    70.6971

_space_group_name_H-M_alt    "P 1"
_space_group_IT_number       1

loop_
  _space_group_symop_operation_xyz
  'x, y, z'

loop_
  _atom_site_type_symbol
  _atom_site_label
  _atom_site_symmetry_multiplicity
  _atom_site_fract_x
  _atom_site_fract_y
  _atom_site_fract_z
  _atom_site_occupancy
  Tl  Tl1       1.0  0.50574  0.67848  0.50000  1.0000
  Tl  Tl2       1.0  0.49426  0.32152  0.50000  1.0000
  Tl  Tl3       1.0  0.50000  0.50000  0.00000  1.0000
  Tl  Tl4       1.0  0.00000  0.00000  0.00000  1.0000
  Tl  Tl5       1.0  0.17848  0.00574  0.50000  1.0000
  Tl  Tl6       1.0  0.00574  0.50574  0.82725  1.0000
  Tl  Tl7       1.0  0.67848  0.17848  0.17275  1.0000
  Tl  Tl8       1.0  0.32152  0.82152  0.82725  1.0000
  Tl  Tl9       1.0  0.99426  0.49426  0.17275  1.0000
  Tl  Tl10      1.0  0.82152  0.99426  0.50000  1.0000
  Sb  Sb1       1.0  0.87080  0.62920  0.50000  1.0000
  Sb  Sb2       1.0  0.62920  0.12920  0.75840  1.0000
  Sb  Sb3       1.0  0.37080  0.87080  0.24160  1.0000
  Sb  Sb4       1.0  0.12920  0.37080  0.50000  1.0000
  Sb  Sb5       1.0  0.25000  0.25000  0.00000  1.0000
  Sb  Sb6       1.0  0.75000  0.75000  0.00000  1.0000
