data_image0
_chemical_formula_structural       Tl4Sb4
_chemical_formula_sum              "Tl4 Sb4"
_cell_length_a       6.21931
_cell_length_b       6.21931
_cell_length_c       6.21931
_cell_angle_alpha    90
_cell_angle_beta     90
_cell_angle_gamma    90

_space_group_name_H-M_alt    "P 1"
_space_group_IT_number       1

loop_
  _space_group_symop_operation_xyz
  'x, y, z'

loop_
  _atom_site_type_symbol
  _atom_site_label
  _atom_site_symmetry_multiplicity
  _atom_site_fract_x
  _atom_site_fract_y
  _atom_site_fract_z
  _atom_site_occupancy
  Tl  Tl1       1.0  0.82044  0.82044  0.82044  1.0000
  Tl  Tl2       1.0  0.67956  0.17956  0.32044  1.0000
  Tl  Tl3       1.0  0.32044  0.67956  0.17956  1.0000
  Tl  Tl4       1.0  0.17956  0.32044  0.67956  1.0000
  Sb  Sb1       1.0  0.18671  0.18671  0.18671  1.0000
  Sb  Sb2       1.0  0.31329  0.81329  0.68671  1.0000
  Sb  Sb3       1.0  0.68671  0.31329  0.81329  1.0000
  Sb  Sb4       1.0  0.81329  0.68671  0.31329  1.0000
