data_image0
_chemical_formula_structural       Sb8Tl8
_chemical_formula_sum              "Sb8 Tl8"
_cell_length_a       8.51963
_cell_length_b       8.51963
_cell_length_c       8.03859
_cell_angle_alpha    90
_cell_angle_beta     90
_cell_angle_gamma    90

_space_group_name_H-M_alt    "P 1"
_space_group_IT_number       1

loop_
  _space_group_symop_operation_xyz
  'x, y, z'

loop_
  _atom_site_type_symbol
  _atom_site_label
  _atom_site_symmetry_multiplicity
  _atom_site_fract_x
  _atom_site_fract_y
  _atom_site_fract_z
  _atom_site_occupancy
  Sb  Sb1       1.0  0.51859  0.66549  0.00000  1.0000
  Sb  Sb2       1.0  0.33451  0.51859  0.50000  1.0000
  Sb  Sb3       1.0  0.66549  0.48141  0.50000  1.0000
  Sb  Sb4       1.0  0.48141  0.33451  0.00000  1.0000
  Sb  Sb5       1.0  0.50000  0.00000  0.50000  1.0000
  Sb  Sb6       1.0  0.00000  0.50000  0.00000  1.0000
  Sb  Sb7       1.0  0.00000  0.00000  0.75000  1.0000
  Sb  Sb8       1.0  0.00000  0.00000  0.25000  1.0000
  Tl  Tl1       1.0  0.19938  0.29570  0.76131  1.0000
  Tl  Tl2       1.0  0.70430  0.19938  0.26131  1.0000
  Tl  Tl3       1.0  0.29570  0.80062  0.26131  1.0000
  Tl  Tl4       1.0  0.80062  0.70430  0.76131  1.0000
  Tl  Tl5       1.0  0.80062  0.70430  0.23869  1.0000
  Tl  Tl6       1.0  0.29570  0.80062  0.73869  1.0000
  Tl  Tl7       1.0  0.70430  0.19938  0.73869  1.0000
  Tl  Tl8       1.0  0.19938  0.29570  0.23869  1.0000
