data_image0
_chemical_formula_structural       Ag9Sn13
_chemical_formula_sum              "Ag9 Sn13"
_cell_length_a       8.95901
_cell_length_b       8.95901
_cell_length_c       7.70776
_cell_angle_alpha    90
_cell_angle_beta     90
_cell_angle_gamma    120

_space_group_name_H-M_alt    "P 1"
_space_group_IT_number       1

loop_
  _space_group_symop_operation_xyz
  'x, y, z'

loop_
  _atom_site_type_symbol
  _atom_site_label
  _atom_site_symmetry_multiplicity
  _atom_site_fract_x
  _atom_site_fract_y
  _atom_site_fract_z
  _atom_site_occupancy
  Ag  Ag1       1.0  0.00000  0.00000  0.50000  1.0000
  Ag  Ag2       1.0  0.33333  0.66667  0.79849  1.0000
  Ag  Ag3       1.0  0.66667  0.33333  0.20151  1.0000
  Ag  Ag4       1.0  0.22282  0.77718  0.25023  1.0000
  Ag  Ag5       1.0  0.22282  0.44564  0.25023  1.0000
  Ag  Ag6       1.0  0.55436  0.77718  0.25023  1.0000
  Ag  Ag7       1.0  0.44564  0.22282  0.74977  1.0000
  Ag  Ag8       1.0  0.77718  0.55436  0.74977  1.0000
  Ag  Ag9       1.0  0.77718  0.22282  0.74977  1.0000
  Sn  Sn1       1.0  0.00000  0.00000  0.00000  1.0000
  Sn  Sn2       1.0  0.50000  0.00000  0.00000  1.0000
  Sn  Sn3       1.0  0.00000  0.50000  0.00000  1.0000
  Sn  Sn4       1.0  0.50000  0.50000  0.00000  1.0000
  Sn  Sn5       1.0  0.50000  0.00000  0.50000  1.0000
  Sn  Sn6       1.0  0.00000  0.50000  0.50000  1.0000
  Sn  Sn7       1.0  0.50000  0.50000  0.50000  1.0000
  Sn  Sn8       1.0  0.14956  0.85044  0.73183  1.0000
  Sn  Sn9       1.0  0.14956  0.29912  0.73183  1.0000
  Sn  Sn10      1.0  0.70088  0.85044  0.73183  1.0000
  Sn  Sn11      1.0  0.29912  0.14956  0.26817  1.0000
  Sn  Sn12      1.0  0.85044  0.70088  0.26817  1.0000
  Sn  Sn13      1.0  0.85044  0.14956  0.26817  1.0000
