data_image0
_chemical_formula_structural       Sc4F12
_chemical_formula_sum              "Sc4 F12"
_cell_length_a       6.88194
_cell_length_b       6.88194
_cell_length_c       4.98873
_cell_angle_alpha    90
_cell_angle_beta     90
_cell_angle_gamma    136.811

_space_group_name_H-M_alt    "P 1"
_space_group_IT_number       1

loop_
  _space_group_symop_operation_xyz
  'x, y, z'

loop_
  _atom_site_type_symbol
  _atom_site_label
  _atom_site_symmetry_multiplicity
  _atom_site_fract_x
  _atom_site_fract_y
  _atom_site_fract_z
  _atom_site_occupancy
  Sc  Sc1       1.0  0.63431  0.36569  0.00000  1.0000
  Sc  Sc2       1.0  0.36569  0.63431  0.00000  1.0000
  Sc  Sc3       1.0  0.13431  0.86569  0.50000  1.0000
  Sc  Sc4       1.0  0.86569  0.13431  0.50000  1.0000
  F   F1        1.0  0.66064  0.66064  0.15859  1.0000
  F   F2        1.0  0.16064  0.16064  0.34141  1.0000
  F   F3        1.0  0.83936  0.83936  0.65859  1.0000
  F   F4        1.0  0.37625  0.62375  0.50000  1.0000
  F   F5        1.0  0.99177  0.49177  0.75000  1.0000
  F   F6        1.0  0.87625  0.12375  0.00000  1.0000
  F   F7        1.0  0.00823  0.50823  0.25000  1.0000
  F   F8        1.0  0.33936  0.33936  0.84141  1.0000
  F   F9        1.0  0.62375  0.37625  0.50000  1.0000
  F   F10       1.0  0.12375  0.87625  0.00000  1.0000
  F   F11       1.0  0.50823  0.00823  0.25000  1.0000
  F   F12       1.0  0.49177  0.99177  0.75000  1.0000
