data_image0
_chemical_formula_structural       Se10Sc6
_chemical_formula_sum              "Se10 Sc6"
_cell_length_a       8.23022
_cell_length_b       8.23022
_cell_length_c       8.23022
_cell_angle_alpha    128.093
_cell_angle_beta     128.093
_cell_angle_gamma    76.4746

_space_group_name_H-M_alt    "P 1"
_space_group_IT_number       1

loop_
  _space_group_symop_operation_xyz
  'x, y, z'

loop_
  _atom_site_type_symbol
  _atom_site_label
  _atom_site_symmetry_multiplicity
  _atom_site_fract_x
  _atom_site_fract_y
  _atom_site_fract_z
  _atom_site_occupancy
  Se  Se1       1.0  0.51479  0.69119  0.50000  1.0000
  Se  Se2       1.0  0.48521  0.30881  0.50000  1.0000
  Se  Se3       1.0  0.50000  0.50000  0.00000  1.0000
  Se  Se4       1.0  0.00000  0.00000  0.00000  1.0000
  Se  Se5       1.0  0.19119  0.01479  0.50000  1.0000
  Se  Se6       1.0  0.01479  0.51479  0.82360  1.0000
  Se  Se7       1.0  0.69119  0.19119  0.17640  1.0000
  Se  Se8       1.0  0.30881  0.80881  0.82360  1.0000
  Se  Se9       1.0  0.98521  0.48521  0.17640  1.0000
  Se  Se10      1.0  0.80881  0.98521  0.50000  1.0000
  Sc  Sc1       1.0  0.84586  0.65414  0.50000  1.0000
  Sc  Sc2       1.0  0.65414  0.15414  0.80829  1.0000
  Sc  Sc3       1.0  0.34586  0.84586  0.19171  1.0000
  Sc  Sc4       1.0  0.15414  0.34586  0.50000  1.0000
  Sc  Sc5       1.0  0.25000  0.25000  0.00000  1.0000
  Sc  Sc6       1.0  0.75000  0.75000  0.00000  1.0000
