data_image0
_chemical_formula_structural       Sc6F4
_chemical_formula_sum              "Sc6 F4"
_cell_length_a       6.34728
_cell_length_b       6.34728
_cell_length_c       4.48371
_cell_angle_alpha    90
_cell_angle_beta     90
_cell_angle_gamma    90

_space_group_name_H-M_alt    "P 1"
_space_group_IT_number       1

loop_
  _space_group_symop_operation_xyz
  'x, y, z'

loop_
  _atom_site_type_symbol
  _atom_site_label
  _atom_site_symmetry_multiplicity
  _atom_site_fract_x
  _atom_site_fract_y
  _atom_site_fract_z
  _atom_site_occupancy
  Sc  Sc1       1.0  0.00000  0.00000  0.00000  1.0000
  Sc  Sc2       1.0  0.50000  0.50000  0.00000  1.0000
  Sc  Sc3       1.0  0.18725  0.68725  0.50074  1.0000
  Sc  Sc4       1.0  0.31275  0.18725  0.49926  1.0000
  Sc  Sc5       1.0  0.68725  0.81275  0.49926  1.0000
  Sc  Sc6       1.0  0.81275  0.31275  0.50074  1.0000
  F   F1        1.0  0.19872  0.69872  0.99986  1.0000
  F   F2        1.0  0.30128  0.19872  0.00014  1.0000
  F   F3        1.0  0.69872  0.80128  0.00014  1.0000
  F   F4        1.0  0.80128  0.30128  0.99986  1.0000
