data_image0
_chemical_formula_structural       Sn3Ag4
_chemical_formula_sum              "Sn3 Ag4"
_cell_length_a       6.92132
_cell_length_b       6.92132
_cell_length_c       9.01104
_cell_angle_alpha    53.1602
_cell_angle_beta     53.1602
_cell_angle_gamma    28.8068

_space_group_name_H-M_alt    "P 1"
_space_group_IT_number       1

loop_
  _space_group_symop_operation_xyz
  'x, y, z'

loop_
  _atom_site_type_symbol
  _atom_site_label
  _atom_site_symmetry_multiplicity
  _atom_site_fract_x
  _atom_site_fract_y
  _atom_site_fract_z
  _atom_site_occupancy
  Sn  Sn1       1.0  0.20256  0.20256  0.82238  1.0000
  Sn  Sn2       1.0  0.79744  0.79744  0.17762  1.0000
  Sn  Sn3       1.0  0.50000  0.50000  0.50000  1.0000
  Ag  Ag1       1.0  0.85160  0.85160  0.44531  1.0000
  Ag  Ag2       1.0  0.14840  0.14840  0.55469  1.0000
  Ag  Ag3       1.0  0.46520  0.46520  0.86291  1.0000
  Ag  Ag4       1.0  0.53480  0.53480  0.13709  1.0000
