data_image0
_chemical_formula_structural       Sn6Ag10
_chemical_formula_sum              "Sn6 Ag10"
_cell_length_a       4.22958
_cell_length_b       6.83109
_cell_length_c       11.7254
_cell_angle_alpha    90
_cell_angle_beta     90
_cell_angle_gamma    90

_space_group_name_H-M_alt    "P 1"
_space_group_IT_number       1

loop_
  _space_group_symop_operation_xyz
  'x, y, z'

loop_
  _atom_site_type_symbol
  _atom_site_label
  _atom_site_symmetry_multiplicity
  _atom_site_fract_x
  _atom_site_fract_y
  _atom_site_fract_z
  _atom_site_occupancy
  Sn  Sn1       1.0  0.50000  0.28515  0.86946  1.0000
  Sn  Sn2       1.0  0.50000  0.78515  0.63054  1.0000
  Sn  Sn3       1.0  0.00000  0.50000  0.50000  1.0000
  Sn  Sn4       1.0  0.00000  0.00000  0.00000  1.0000
  Sn  Sn5       1.0  0.50000  0.71485  0.13054  1.0000
  Sn  Sn6       1.0  0.50000  0.21485  0.36946  1.0000
  Ag  Ag1       1.0  0.50000  0.75530  0.37694  1.0000
  Ag  Ag2       1.0  0.50000  0.24470  0.62306  1.0000
  Ag  Ag3       1.0  0.00000  0.01311  0.75183  1.0000
  Ag  Ag4       1.0  0.50000  0.74470  0.87694  1.0000
  Ag  Ag5       1.0  0.00000  0.48689  0.25183  1.0000
  Ag  Ag6       1.0  0.00000  0.98689  0.24817  1.0000
  Ag  Ag7       1.0  0.00000  0.51311  0.74817  1.0000
  Ag  Ag8       1.0  0.00000  0.50000  0.00000  1.0000
  Ag  Ag9       1.0  0.00000  0.00000  0.50000  1.0000
  Ag  Ag10      1.0  0.50000  0.25530  0.12306  1.0000
