data_image0
_chemical_formula_structural       ScHg4
_chemical_formula_sum              "Sc1 Hg4"
_cell_length_a       6.24332
_cell_length_b       6.24332
_cell_length_c       6.24332
_cell_angle_alpha    94.1979
_cell_angle_beta     94.1979
_cell_angle_gamma    148.605

_space_group_name_H-M_alt    "P 1"
_space_group_IT_number       1

loop_
  _space_group_symop_operation_xyz
  'x, y, z'

loop_
  _atom_site_type_symbol
  _atom_site_label
  _atom_site_symmetry_multiplicity
  _atom_site_fract_x
  _atom_site_fract_y
  _atom_site_fract_z
  _atom_site_occupancy
  Sc  Sc1       1.0  0.00000  0.00000  0.00000  1.0000
  Hg  Hg1       1.0  0.56473  0.78394  0.34867  1.0000
  Hg  Hg2       1.0  0.43527  0.21606  0.65133  1.0000
  Hg  Hg3       1.0  0.21606  0.56473  0.78080  1.0000
  Hg  Hg4       1.0  0.78394  0.43527  0.21920  1.0000
