data_image0
_chemical_formula_structural       Sc2Hg6
_chemical_formula_sum              "Sc2 Hg6"
_cell_length_a       6.49112
_cell_length_b       6.49112
_cell_length_c       4.90413
_cell_angle_alpha    90
_cell_angle_beta     90
_cell_angle_gamma    120

_space_group_name_H-M_alt    "P 1"
_space_group_IT_number       1

loop_
  _space_group_symop_operation_xyz
  'x, y, z'

loop_
  _atom_site_type_symbol
  _atom_site_label
  _atom_site_symmetry_multiplicity
  _atom_site_fract_x
  _atom_site_fract_y
  _atom_site_fract_z
  _atom_site_occupancy
  Sc  Sc1       1.0  0.33333  0.66667  0.75000  1.0000
  Sc  Sc2       1.0  0.66667  0.33333  0.25000  1.0000
  Hg  Hg1       1.0  0.16943  0.33887  0.25000  1.0000
  Hg  Hg2       1.0  0.66113  0.83057  0.25000  1.0000
  Hg  Hg3       1.0  0.16943  0.83057  0.25000  1.0000
  Hg  Hg4       1.0  0.83057  0.66113  0.75000  1.0000
  Hg  Hg5       1.0  0.33887  0.16943  0.75000  1.0000
  Hg  Hg6       1.0  0.83057  0.16943  0.75000  1.0000
