data_image0
_chemical_formula_structural       F10Sc6
_chemical_formula_sum              "F10 Sc6"
_cell_length_a       6.68881
_cell_length_b       6.68881
_cell_length_c       6.68881
_cell_angle_alpha    122.32
_cell_angle_beta     122.32
_cell_angle_gamma    86.0267

_space_group_name_H-M_alt    "P 1"
_space_group_IT_number       1

loop_
  _space_group_symop_operation_xyz
  'x, y, z'

loop_
  _atom_site_type_symbol
  _atom_site_label
  _atom_site_symmetry_multiplicity
  _atom_site_fract_x
  _atom_site_fract_y
  _atom_site_fract_z
  _atom_site_occupancy
  F   F1        1.0  0.51866  0.72420  0.50000  1.0000
  F   F2        1.0  0.48134  0.27580  0.50000  1.0000
  F   F3        1.0  0.50000  0.50000  0.00000  1.0000
  F   F4        1.0  0.00000  0.00000  0.00000  1.0000
  F   F5        1.0  0.22420  0.01866  0.50000  1.0000
  F   F6        1.0  0.01866  0.51866  0.79446  1.0000
  F   F7        1.0  0.72420  0.22420  0.20554  1.0000
  F   F8        1.0  0.27580  0.77580  0.79446  1.0000
  F   F9        1.0  0.98134  0.48134  0.20554  1.0000
  F   F10       1.0  0.77580  0.98134  0.50000  1.0000
  Sc  Sc1       1.0  0.84697  0.65303  0.50000  1.0000
  Sc  Sc2       1.0  0.65303  0.15303  0.80606  1.0000
  Sc  Sc3       1.0  0.34697  0.84697  0.19394  1.0000
  Sc  Sc4       1.0  0.15303  0.34697  0.50000  1.0000
  Sc  Sc5       1.0  0.25000  0.25000  0.00000  1.0000
  Sc  Sc6       1.0  0.75000  0.75000  0.00000  1.0000
