data_image0
_chemical_formula_structural       Sn3Ag4
_chemical_formula_sum              "Sn3 Ag4"
_cell_length_a       8.06569
_cell_length_b       8.06569
_cell_length_c       7.0181
_cell_angle_alpha    59.6449
_cell_angle_beta     59.6449
_cell_angle_gamma    23.5252

_space_group_name_H-M_alt    "P 1"
_space_group_IT_number       1

loop_
  _space_group_symop_operation_xyz
  'x, y, z'

loop_
  _atom_site_type_symbol
  _atom_site_label
  _atom_site_symmetry_multiplicity
  _atom_site_fract_x
  _atom_site_fract_y
  _atom_site_fract_z
  _atom_site_occupancy
  Sn  Sn1       1.0  0.00000  0.00000  0.00000  1.0000
  Sn  Sn2       1.0  0.23131  0.23131  0.74697  1.0000
  Sn  Sn3       1.0  0.76869  0.76869  0.25303  1.0000
  Ag  Ag1       1.0  0.08839  0.08839  0.53388  1.0000
  Ag  Ag2       1.0  0.91161  0.91161  0.46612  1.0000
  Ag  Ag3       1.0  0.59602  0.59602  0.18792  1.0000
  Ag  Ag4       1.0  0.40398  0.40398  0.81208  1.0000
