data_image0
_chemical_formula_structural       Sc3Hg8
_chemical_formula_sum              "Sc3 Hg8"
_cell_length_a       6.83277
_cell_length_b       6.83277
_cell_length_c       6.83277
_cell_angle_alpha    103.688
_cell_angle_beta     103.688
_cell_angle_gamma    103.688

_space_group_name_H-M_alt    "P 1"
_space_group_IT_number       1

loop_
  _space_group_symop_operation_xyz
  'x, y, z'

loop_
  _atom_site_type_symbol
  _atom_site_label
  _atom_site_symmetry_multiplicity
  _atom_site_fract_x
  _atom_site_fract_y
  _atom_site_fract_z
  _atom_site_occupancy
  Sc  Sc1       1.0  0.50000  0.00000  0.50000  1.0000
  Sc  Sc2       1.0  0.00000  0.50000  0.50000  1.0000
  Sc  Sc3       1.0  0.50000  0.50000  0.00000  1.0000
  Hg  Hg1       1.0  0.66759  0.95589  0.14637  1.0000
  Hg  Hg2       1.0  0.95589  0.14637  0.66759  1.0000
  Hg  Hg3       1.0  0.14637  0.66759  0.95589  1.0000
  Hg  Hg4       1.0  0.68469  0.68469  0.68469  1.0000
  Hg  Hg5       1.0  0.31531  0.31531  0.31531  1.0000
  Hg  Hg6       1.0  0.85363  0.33241  0.04411  1.0000
  Hg  Hg7       1.0  0.04411  0.85363  0.33241  1.0000
  Hg  Hg8       1.0  0.33241  0.04411  0.85363  1.0000
