data_image0
_chemical_formula_structural       ScHg5
_chemical_formula_sum              "Sc1 Hg5"
_cell_length_a       6.31211
_cell_length_b       6.31211
_cell_length_c       6.31211
_cell_angle_alpha    51.6231
_cell_angle_beta     51.6231
_cell_angle_gamma    51.6231

_space_group_name_H-M_alt    "P 1"
_space_group_IT_number       1

loop_
  _space_group_symop_operation_xyz
  'x, y, z'

loop_
  _atom_site_type_symbol
  _atom_site_label
  _atom_site_symmetry_multiplicity
  _atom_site_fract_x
  _atom_site_fract_y
  _atom_site_fract_z
  _atom_site_occupancy
  Sc  Sc1       1.0  0.00000  0.00000  0.00000  1.0000
  Hg  Hg1       1.0  0.65582  0.65582  0.65582  1.0000
  Hg  Hg2       1.0  0.14809  0.50000  0.85191  1.0000
  Hg  Hg3       1.0  0.50000  0.85191  0.14809  1.0000
  Hg  Hg4       1.0  0.85191  0.14809  0.50000  1.0000
  Hg  Hg5       1.0  0.34418  0.34418  0.34418  1.0000
