data_image0
_chemical_formula_structural       Hg10Sc6
_chemical_formula_sum              "Hg10 Sc6"
_cell_length_a       8.11562
_cell_length_b       8.11562
_cell_length_c       8.11562
_cell_angle_alpha    122.438
_cell_angle_beta     122.438
_cell_angle_gamma    85.8265

_space_group_name_H-M_alt    "P 1"
_space_group_IT_number       1

loop_
  _space_group_symop_operation_xyz
  'x, y, z'

loop_
  _atom_site_type_symbol
  _atom_site_label
  _atom_site_symmetry_multiplicity
  _atom_site_fract_x
  _atom_site_fract_y
  _atom_site_fract_z
  _atom_site_occupancy
  Hg  Hg1       1.0  0.48614  0.68808  0.50000  1.0000
  Hg  Hg2       1.0  0.51386  0.31192  0.50000  1.0000
  Hg  Hg3       1.0  0.50000  0.50000  0.00000  1.0000
  Hg  Hg4       1.0  0.00000  0.00000  0.00000  1.0000
  Hg  Hg5       1.0  0.18808  0.98614  0.50000  1.0000
  Hg  Hg6       1.0  0.98614  0.48614  0.79806  1.0000
  Hg  Hg7       1.0  0.68808  0.18808  0.20194  1.0000
  Hg  Hg8       1.0  0.31192  0.81192  0.79806  1.0000
  Hg  Hg9       1.0  0.01386  0.51386  0.20194  1.0000
  Hg  Hg10      1.0  0.81192  0.01386  0.50000  1.0000
  Sc  Sc1       1.0  0.84648  0.65352  0.50000  1.0000
  Sc  Sc2       1.0  0.65352  0.15352  0.80704  1.0000
  Sc  Sc3       1.0  0.34648  0.84648  0.19296  1.0000
  Sc  Sc4       1.0  0.15352  0.34648  0.50000  1.0000
  Sc  Sc5       1.0  0.25000  0.25000  0.00000  1.0000
  Sc  Sc6       1.0  0.75000  0.75000  0.00000  1.0000
