data_image0
_chemical_formula_structural       Sc6F16
_chemical_formula_sum              "Sc6 F16"
_cell_length_a       5.315
_cell_length_b       5.36611
_cell_length_c       11.777
_cell_angle_alpha    66.588
_cell_angle_beta     90
_cell_angle_gamma    90

_space_group_name_H-M_alt    "P 1"
_space_group_IT_number       1

loop_
  _space_group_symop_operation_xyz
  'x, y, z'

loop_
  _atom_site_type_symbol
  _atom_site_label
  _atom_site_symmetry_multiplicity
  _atom_site_fract_x
  _atom_site_fract_y
  _atom_site_fract_z
  _atom_site_occupancy
  Sc  Sc1       1.0  0.49478  0.74112  0.75454  1.0000
  Sc  Sc2       1.0  0.50522  0.25888  0.24546  1.0000
  Sc  Sc3       1.0  0.50000  0.00000  0.00000  1.0000
  Sc  Sc4       1.0  0.99478  0.25888  0.74546  1.0000
  Sc  Sc5       1.0  0.00522  0.74112  0.25454  1.0000
  Sc  Sc6       1.0  0.00000  0.00000  0.50000  1.0000
  F   F1        1.0  0.66374  0.66272  0.17076  1.0000
  F   F2        1.0  0.67247  0.11194  0.69474  1.0000
  F   F3        1.0  0.60634  0.73518  0.92146  1.0000
  F   F4        1.0  0.68554  0.21834  0.40488  1.0000
  F   F5        1.0  0.81446  0.21834  0.90488  1.0000
  F   F6        1.0  0.82753  0.11194  0.19474  1.0000
  F   F7        1.0  0.89366  0.73518  0.42146  1.0000
  F   F8        1.0  0.83626  0.66272  0.67076  1.0000
  F   F9        1.0  0.17247  0.88806  0.80526  1.0000
  F   F10       1.0  0.18554  0.78166  0.09512  1.0000
  F   F11       1.0  0.10634  0.26482  0.57854  1.0000
  F   F12       1.0  0.16374  0.33728  0.32924  1.0000
  F   F13       1.0  0.39366  0.26482  0.07854  1.0000
  F   F14       1.0  0.33626  0.33728  0.82924  1.0000
  F   F15       1.0  0.32753  0.88806  0.30526  1.0000
  F   F16       1.0  0.31446  0.78166  0.59512  1.0000
