data_image0
_chemical_formula_structural       Sc2I4
_chemical_formula_sum              "Sc2 I4"
_cell_length_a       4.06409
_cell_length_b       6.91196
_cell_length_c       7.43152
_cell_angle_alpha    90
_cell_angle_beta     90
_cell_angle_gamma    90

_space_group_name_H-M_alt    "P 1"
_space_group_IT_number       1

loop_
  _space_group_symop_operation_xyz
  'x, y, z'

loop_
  _atom_site_type_symbol
  _atom_site_label
  _atom_site_symmetry_multiplicity
  _atom_site_fract_x
  _atom_site_fract_y
  _atom_site_fract_z
  _atom_site_occupancy
  Sc  Sc1       1.0  0.50000  0.50000  0.50000  1.0000
  Sc  Sc2       1.0  0.00000  0.00000  0.00000  1.0000
  I   I1        1.0  0.50000  0.25353  0.83370  1.0000
  I   I2        1.0  0.50000  0.74647  0.16630  1.0000
  I   I3        1.0  0.00000  0.24647  0.33370  1.0000
  I   I4        1.0  0.00000  0.75353  0.66630  1.0000
