data_image0
_chemical_formula_structural       SnAg2
_chemical_formula_sum              "Sn1 Ag2"
_cell_length_a       5.18941
_cell_length_b       5.18941
_cell_length_c       5.18941
_cell_angle_alpha    143.1
_cell_angle_beta     132.212
_cell_angle_gamma    61.8646

_space_group_name_H-M_alt    "P 1"
_space_group_IT_number       1

loop_
  _space_group_symop_operation_xyz
  'x, y, z'

loop_
  _atom_site_type_symbol
  _atom_site_label
  _atom_site_symmetry_multiplicity
  _atom_site_fract_x
  _atom_site_fract_y
  _atom_site_fract_z
  _atom_site_occupancy
  Sn  Sn1       1.0  0.00000  0.00000  0.00000  1.0000
  Ag  Ag1       1.0  0.66997  0.66997  0.00000  1.0000
  Ag  Ag2       1.0  0.33003  0.33003  0.00000  1.0000
