data_image0
_chemical_formula_structural       ScF4
_chemical_formula_sum              "Sc1 F4"
_cell_length_a       4.90903
_cell_length_b       4.90903
_cell_length_c       4.90903
_cell_angle_alpha    95.0798
_cell_angle_beta     95.0798
_cell_angle_gamma    145.378

_space_group_name_H-M_alt    "P 1"
_space_group_IT_number       1

loop_
  _space_group_symop_operation_xyz
  'x, y, z'

loop_
  _atom_site_type_symbol
  _atom_site_label
  _atom_site_symmetry_multiplicity
  _atom_site_fract_x
  _atom_site_fract_y
  _atom_site_fract_z
  _atom_site_occupancy
  Sc  Sc1       1.0  0.00000  0.00000  0.00000  1.0000
  F   F1        1.0  0.57166  0.72867  0.30033  1.0000
  F   F2        1.0  0.42834  0.27133  0.69967  1.0000
  F   F3        1.0  0.27133  0.57166  0.84299  1.0000
  F   F4        1.0  0.72867  0.42834  0.15701  1.0000
