data_image0
_chemical_formula_structural       SnAg4
_chemical_formula_sum              "Sn1 Ag4"
_cell_length_a       5.21308
_cell_length_b       5.21308
_cell_length_c       5.21308
_cell_angle_alpha    99.4662
_cell_angle_beta     99.4662
_cell_angle_gamma    132.15

_space_group_name_H-M_alt    "P 1"
_space_group_IT_number       1

loop_
  _space_group_symop_operation_xyz
  'x, y, z'

loop_
  _atom_site_type_symbol
  _atom_site_label
  _atom_site_symmetry_multiplicity
  _atom_site_fract_x
  _atom_site_fract_y
  _atom_site_fract_z
  _atom_site_occupancy
  Sn  Sn1       1.0  0.00000  0.00000  0.00000  1.0000
  Ag  Ag1       1.0  0.60090  0.80534  0.40624  1.0000
  Ag  Ag2       1.0  0.39910  0.19466  0.59376  1.0000
  Ag  Ag3       1.0  0.19466  0.60090  0.79556  1.0000
  Ag  Ag4       1.0  0.80534  0.39910  0.20444  1.0000
