data_image0
_chemical_formula_structural       S10Sc6
_chemical_formula_sum              "S10 Sc6"
_cell_length_a       7.79184
_cell_length_b       7.79184
_cell_length_c       7.79184
_cell_angle_alpha    127.743
_cell_angle_beta     127.743
_cell_angle_gamma    77.0418

_space_group_name_H-M_alt    "P 1"
_space_group_IT_number       1

loop_
  _space_group_symop_operation_xyz
  'x, y, z'

loop_
  _atom_site_type_symbol
  _atom_site_label
  _atom_site_symmetry_multiplicity
  _atom_site_fract_x
  _atom_site_fract_y
  _atom_site_fract_z
  _atom_site_occupancy
  S   S1        1.0  0.51355  0.69295  0.50000  1.0000
  S   S2        1.0  0.48645  0.30705  0.50000  1.0000
  S   S3        1.0  0.50000  0.50000  0.00000  1.0000
  S   S4        1.0  0.00000  0.00000  0.00000  1.0000
  S   S5        1.0  0.19295  0.01355  0.50000  1.0000
  S   S6        1.0  0.01355  0.51355  0.82059  1.0000
  S   S7        1.0  0.69295  0.19295  0.17941  1.0000
  S   S8        1.0  0.30705  0.80705  0.82059  1.0000
  S   S9        1.0  0.98645  0.48645  0.17941  1.0000
  S   S10       1.0  0.80705  0.98645  0.50000  1.0000
  Sc  Sc1       1.0  0.84305  0.65695  0.50000  1.0000
  Sc  Sc2       1.0  0.65695  0.15695  0.81389  1.0000
  Sc  Sc3       1.0  0.34305  0.84305  0.18611  1.0000
  Sc  Sc4       1.0  0.15695  0.34305  0.50000  1.0000
  Sc  Sc5       1.0  0.25000  0.25000  0.00000  1.0000
  Sc  Sc6       1.0  0.75000  0.75000  0.00000  1.0000
