data_image0
_chemical_formula_structural       Sn4Ag8
_chemical_formula_sum              "Sn4 Ag8"
_cell_length_a       9.83024
_cell_length_b       9.83024
_cell_length_c       8.18413
_cell_angle_alpha    90
_cell_angle_beta     90
_cell_angle_gamma    161.662

_space_group_name_H-M_alt    "P 1"
_space_group_IT_number       1

loop_
  _space_group_symop_operation_xyz
  'x, y, z'

loop_
  _atom_site_type_symbol
  _atom_site_label
  _atom_site_symmetry_multiplicity
  _atom_site_fract_x
  _atom_site_fract_y
  _atom_site_fract_z
  _atom_site_occupancy
  Sn  Sn1       1.0  0.19699  0.80301  0.21326  1.0000
  Sn  Sn2       1.0  0.80301  0.19699  0.71326  1.0000
  Sn  Sn3       1.0  0.55427  0.44573  0.71265  1.0000
  Sn  Sn4       1.0  0.44573  0.55427  0.21265  1.0000
  Ag  Ag1       1.0  0.67868  0.32132  0.90671  1.0000
  Ag  Ag2       1.0  0.32132  0.67868  0.40671  1.0000
  Ag  Ag3       1.0  0.41905  0.58095  0.86431  1.0000
  Ag  Ag4       1.0  0.58095  0.41905  0.36431  1.0000
  Ag  Ag5       1.0  0.17913  0.82087  0.58094  1.0000
  Ag  Ag6       1.0  0.82087  0.17913  0.08094  1.0000
  Ag  Ag7       1.0  0.94388  0.05612  0.53643  1.0000
  Ag  Ag8       1.0  0.05612  0.94388  0.03643  1.0000
