data_image0
_chemical_formula_structural       Sc8F16
_chemical_formula_sum              "Sc8 F16"
_cell_length_a       6.45394
_cell_length_b       6.14552
_cell_length_c       8.37852
_cell_angle_alpha    90
_cell_angle_beta     90
_cell_angle_gamma    90

_space_group_name_H-M_alt    "P 1"
_space_group_IT_number       1

loop_
  _space_group_symop_operation_xyz
  'x, y, z'

loop_
  _atom_site_type_symbol
  _atom_site_label
  _atom_site_symmetry_multiplicity
  _atom_site_fract_x
  _atom_site_fract_y
  _atom_site_fract_z
  _atom_site_occupancy
  Sc  Sc1       1.0  0.45608  0.76503  0.13784  1.0000
  Sc  Sc2       1.0  0.04392  0.73497  0.63784  1.0000
  Sc  Sc3       1.0  0.04392  0.26503  0.86216  1.0000
  Sc  Sc4       1.0  0.45608  0.23497  0.36216  1.0000
  Sc  Sc5       1.0  0.54392  0.23497  0.86216  1.0000
  Sc  Sc6       1.0  0.95608  0.26503  0.36216  1.0000
  Sc  Sc7       1.0  0.95608  0.73497  0.13784  1.0000
  Sc  Sc8       1.0  0.54392  0.76503  0.63784  1.0000
  F   F1        1.0  0.31733  0.50000  0.25000  1.0000
  F   F2        1.0  0.18267  0.00000  0.75000  1.0000
  F   F3        1.0  0.68267  0.50000  0.75000  1.0000
  F   F4        1.0  0.81733  0.00000  0.25000  1.0000
  F   F5        1.0  0.45512  0.88544  0.38144  1.0000
  F   F6        1.0  0.04488  0.61456  0.88144  1.0000
  F   F7        1.0  0.04488  0.38544  0.61856  1.0000
  F   F8        1.0  0.45512  0.11456  0.11856  1.0000
  F   F9        1.0  0.54488  0.11456  0.61856  1.0000
  F   F10       1.0  0.95512  0.38544  0.11856  1.0000
  F   F11       1.0  0.95512  0.61456  0.38144  1.0000
  F   F12       1.0  0.54488  0.88544  0.88144  1.0000
  F   F13       1.0  0.50000  0.50000  0.00000  1.0000
  F   F14       1.0  0.00000  0.00000  0.50000  1.0000
  F   F15       1.0  0.00000  0.00000  0.00000  1.0000
  F   F16       1.0  0.50000  0.50000  0.50000  1.0000
