data_image0
_chemical_formula_structural       N4Sc4
_chemical_formula_sum              "N4 Sc4"
_cell_length_a       4.51852
_cell_length_b       4.51852
_cell_length_c       4.51852
_cell_angle_alpha    90
_cell_angle_beta     90
_cell_angle_gamma    90

_space_group_name_H-M_alt    "P 1"
_space_group_IT_number       1

loop_
  _space_group_symop_operation_xyz
  'x, y, z'

loop_
  _atom_site_type_symbol
  _atom_site_label
  _atom_site_symmetry_multiplicity
  _atom_site_fract_x
  _atom_site_fract_y
  _atom_site_fract_z
  _atom_site_occupancy
  N   N1        1.0  0.74995  0.75005  0.24995  1.0000
  N   N2        1.0  0.75005  0.24995  0.74995  1.0000
  N   N3        1.0  0.24995  0.74995  0.75005  1.0000
  N   N4        1.0  0.25005  0.25005  0.25005  1.0000
  Sc  Sc1       1.0  0.24990  0.25010  0.74990  1.0000
  Sc  Sc2       1.0  0.25010  0.74990  0.24990  1.0000
  Sc  Sc3       1.0  0.74990  0.24990  0.25010  1.0000
  Sc  Sc4       1.0  0.75010  0.75010  0.75010  1.0000
