data_image0
_chemical_formula_structural       Sc4Hg12
_chemical_formula_sum              "Sc4 Hg12"
_cell_length_a       9.47903
_cell_length_b       9.47903
_cell_length_c       6.38496
_cell_angle_alpha    90
_cell_angle_beta     90
_cell_angle_gamma    140.956

_space_group_name_H-M_alt    "P 1"
_space_group_IT_number       1

loop_
  _space_group_symop_operation_xyz
  'x, y, z'

loop_
  _atom_site_type_symbol
  _atom_site_label
  _atom_site_symmetry_multiplicity
  _atom_site_fract_x
  _atom_site_fract_y
  _atom_site_fract_z
  _atom_site_occupancy
  Sc  Sc1       1.0  0.62424  0.37576  0.00000  1.0000
  Sc  Sc2       1.0  0.37576  0.62424  0.00000  1.0000
  Sc  Sc3       1.0  0.12424  0.87576  0.50000  1.0000
  Sc  Sc4       1.0  0.87576  0.12424  0.50000  1.0000
  Hg  Hg1       1.0  0.74441  0.74441  0.24615  1.0000
  Hg  Hg2       1.0  0.24441  0.24441  0.25385  1.0000
  Hg  Hg3       1.0  0.75559  0.75559  0.74615  1.0000
  Hg  Hg4       1.0  0.37033  0.62967  0.50000  1.0000
  Hg  Hg5       1.0  0.99858  0.49858  0.75000  1.0000
  Hg  Hg6       1.0  0.87033  0.12967  0.00000  1.0000
  Hg  Hg7       1.0  0.00142  0.50142  0.25000  1.0000
  Hg  Hg8       1.0  0.25559  0.25559  0.75385  1.0000
  Hg  Hg9       1.0  0.62967  0.37033  0.50000  1.0000
  Hg  Hg10      1.0  0.12967  0.87033  0.00000  1.0000
  Hg  Hg11      1.0  0.50142  0.00142  0.25000  1.0000
  Hg  Hg12      1.0  0.49858  0.99858  0.75000  1.0000
