data_image0
_chemical_formula_structural       Sc9Cl9
_chemical_formula_sum              "Sc9 Cl9"
_cell_length_a       8.01403
_cell_length_b       8.01403
_cell_length_c       5.65317
_cell_angle_alpha    90
_cell_angle_beta     90
_cell_angle_gamma    120

_space_group_name_H-M_alt    "P 1"
_space_group_IT_number       1

loop_
  _space_group_symop_operation_xyz
  'x, y, z'

loop_
  _atom_site_type_symbol
  _atom_site_label
  _atom_site_symmetry_multiplicity
  _atom_site_fract_x
  _atom_site_fract_y
  _atom_site_fract_z
  _atom_site_occupancy
  Sc  Sc1       1.0  1.00000  0.66696  0.22572  1.0000
  Sc  Sc2       1.0  0.66696  1.00000  0.22572  1.0000
  Sc  Sc3       1.0  0.33304  0.33304  0.22572  1.0000
  Sc  Sc4       1.0  0.33361  1.00000  0.89190  1.0000
  Sc  Sc5       1.0  0.66639  0.66639  0.89190  1.0000
  Sc  Sc6       1.0  1.00000  0.33361  0.89190  1.0000
  Sc  Sc7       1.0  0.33333  0.66667  0.55868  1.0000
  Sc  Sc8       1.0  0.00000  0.00000  0.55931  1.0000
  Sc  Sc9       1.0  0.66667  0.33333  0.55868  1.0000
  Cl  Cl1       1.0  1.00000  0.66694  0.72550  1.0000
  Cl  Cl2       1.0  0.66694  1.00000  0.72550  1.0000
  Cl  Cl3       1.0  0.33306  0.33306  0.72550  1.0000
  Cl  Cl4       1.0  0.33360  1.00000  0.39205  1.0000
  Cl  Cl5       1.0  0.66640  0.66640  0.39205  1.0000
  Cl  Cl6       1.0  1.00000  0.33360  0.39205  1.0000
  Cl  Cl7       1.0  0.33333  0.66667  0.05850  1.0000
  Cl  Cl8       1.0  0.00000  0.00000  0.05919  1.0000
  Cl  Cl9       1.0  0.66667  0.33333  0.05850  1.0000
