data_image0
_chemical_formula_structural       Hg9Sc13
_chemical_formula_sum              "Hg9 Sc13"
_cell_length_a       9.65563
_cell_length_b       9.65563
_cell_length_c       6.35814
_cell_angle_alpha    90
_cell_angle_beta     90
_cell_angle_gamma    120

_space_group_name_H-M_alt    "P 1"
_space_group_IT_number       1

loop_
  _space_group_symop_operation_xyz
  'x, y, z'

loop_
  _atom_site_type_symbol
  _atom_site_label
  _atom_site_symmetry_multiplicity
  _atom_site_fract_x
  _atom_site_fract_y
  _atom_site_fract_z
  _atom_site_occupancy
  Hg  Hg1       1.0  0.00000  0.00000  0.50000  1.0000
  Hg  Hg2       1.0  0.33333  0.66667  0.75505  1.0000
  Hg  Hg3       1.0  0.66667  0.33333  0.24495  1.0000
  Hg  Hg4       1.0  0.18979  0.81021  0.24461  1.0000
  Hg  Hg5       1.0  0.18979  0.37958  0.24461  1.0000
  Hg  Hg6       1.0  0.62042  0.81021  0.24461  1.0000
  Hg  Hg7       1.0  0.37958  0.18979  0.75539  1.0000
  Hg  Hg8       1.0  0.81021  0.62042  0.75539  1.0000
  Hg  Hg9       1.0  0.81021  0.18979  0.75539  1.0000
  Sc  Sc1       1.0  0.00000  0.00000  0.00000  1.0000
  Sc  Sc2       1.0  0.50000  0.00000  0.00000  1.0000
  Sc  Sc3       1.0  0.00000  0.50000  0.00000  1.0000
  Sc  Sc4       1.0  0.50000  0.50000  0.00000  1.0000
  Sc  Sc5       1.0  0.50000  0.00000  0.50000  1.0000
  Sc  Sc6       1.0  0.00000  0.50000  0.50000  1.0000
  Sc  Sc7       1.0  0.50000  0.50000  0.50000  1.0000
  Sc  Sc8       1.0  0.15778  0.84222  0.73741  1.0000
  Sc  Sc9       1.0  0.15778  0.31557  0.73741  1.0000
  Sc  Sc10      1.0  0.68443  0.84222  0.73741  1.0000
  Sc  Sc11      1.0  0.31557  0.15778  0.26259  1.0000
  Sc  Sc12      1.0  0.84222  0.68443  0.26259  1.0000
  Sc  Sc13      1.0  0.84222  0.15778  0.26259  1.0000
