data_image0
_chemical_formula_structural       Cl10Sc6
_chemical_formula_sum              "Cl10 Sc6"
_cell_length_a       7.92198
_cell_length_b       7.92198
_cell_length_c       7.92198
_cell_angle_alpha    125.422
_cell_angle_beta     125.422
_cell_angle_gamma    80.8399

_space_group_name_H-M_alt    "P 1"
_space_group_IT_number       1

loop_
  _space_group_symop_operation_xyz
  'x, y, z'

loop_
  _atom_site_type_symbol
  _atom_site_label
  _atom_site_symmetry_multiplicity
  _atom_site_fract_x
  _atom_site_fract_y
  _atom_site_fract_z
  _atom_site_occupancy
  Cl  Cl1       1.0  0.51442  0.70115  0.50000  1.0000
  Cl  Cl2       1.0  0.48558  0.29885  0.50000  1.0000
  Cl  Cl3       1.0  0.50000  0.50000  0.00000  1.0000
  Cl  Cl4       1.0  0.00000  0.00000  0.00000  1.0000
  Cl  Cl5       1.0  0.20115  0.01442  0.50000  1.0000
  Cl  Cl6       1.0  0.01442  0.51442  0.81327  1.0000
  Cl  Cl7       1.0  0.70115  0.20115  0.18673  1.0000
  Cl  Cl8       1.0  0.29885  0.79885  0.81327  1.0000
  Cl  Cl9       1.0  0.98558  0.48558  0.18673  1.0000
  Cl  Cl10      1.0  0.79885  0.98558  0.50000  1.0000
  Sc  Sc1       1.0  0.85587  0.64413  0.50000  1.0000
  Sc  Sc2       1.0  0.64413  0.14413  0.78827  1.0000
  Sc  Sc3       1.0  0.35587  0.85587  0.21173  1.0000
  Sc  Sc4       1.0  0.14413  0.35587  0.50000  1.0000
  Sc  Sc5       1.0  0.25000  0.25000  0.00000  1.0000
  Sc  Sc6       1.0  0.75000  0.75000  0.00000  1.0000
