data_image0
_chemical_formula_structural       Ag6Sn2
_chemical_formula_sum              "Ag6 Sn2"
_cell_length_a       4.87453
_cell_length_b       5.2671
_cell_length_c       6.08565
_cell_angle_alpha    90
_cell_angle_beta     90
_cell_angle_gamma    90

_space_group_name_H-M_alt    "P 1"
_space_group_IT_number       1

loop_
  _space_group_symop_operation_xyz
  'x, y, z'

loop_
  _atom_site_type_symbol
  _atom_site_label
  _atom_site_symmetry_multiplicity
  _atom_site_fract_x
  _atom_site_fract_y
  _atom_site_fract_z
  _atom_site_occupancy
  Ag  Ag1       1.0  0.00000  0.33652  0.25076  1.0000
  Ag  Ag2       1.0  0.00000  0.33652  0.74924  1.0000
  Ag  Ag3       1.0  0.50000  0.66348  0.24924  1.0000
  Ag  Ag4       1.0  0.50000  0.66348  0.75076  1.0000
  Ag  Ag5       1.0  0.00000  0.82623  0.50000  1.0000
  Ag  Ag6       1.0  0.50000  0.17377  0.00000  1.0000
  Sn  Sn1       1.0  0.00000  0.83227  0.00000  1.0000
  Sn  Sn2       1.0  0.50000  0.16773  0.50000  1.0000
