data_image0
_chemical_formula_structural       F4Sc2
_chemical_formula_sum              "F4 Sc2"
_cell_length_a       4.56158
_cell_length_b       4.56158
_cell_length_c       4.56158
_cell_angle_alpha    110.657
_cell_angle_beta     110.657
_cell_angle_gamma    107.124

_space_group_name_H-M_alt    "P 1"
_space_group_IT_number       1

loop_
  _space_group_symop_operation_xyz
  'x, y, z'

loop_
  _atom_site_type_symbol
  _atom_site_label
  _atom_site_symmetry_multiplicity
  _atom_site_fract_x
  _atom_site_fract_y
  _atom_site_fract_z
  _atom_site_occupancy
  F   F1        1.0  0.77144  0.27144  0.04288  1.0000
  F   F2        1.0  0.27144  0.22856  0.50000  1.0000
  F   F3        1.0  0.22856  0.72856  0.95712  1.0000
  F   F4        1.0  0.72856  0.77144  0.50000  1.0000
  Sc  Sc1       1.0  0.25000  0.25000  0.00000  1.0000
  Sc  Sc2       1.0  0.75000  0.75000  0.00000  1.0000
