data_image0
_chemical_formula_structural       Au9Sn13
_chemical_formula_sum              "Au9 Sn13"
_cell_length_a       8.71341
_cell_length_b       8.71341
_cell_length_c       8.13344
_cell_angle_alpha    90
_cell_angle_beta     90
_cell_angle_gamma    120

_space_group_name_H-M_alt    "P 1"
_space_group_IT_number       1

loop_
  _space_group_symop_operation_xyz
  'x, y, z'

loop_
  _atom_site_type_symbol
  _atom_site_label
  _atom_site_symmetry_multiplicity
  _atom_site_fract_x
  _atom_site_fract_y
  _atom_site_fract_z
  _atom_site_occupancy
  Au  Au1       1.0  0.00000  0.00000  0.50000  1.0000
  Au  Au2       1.0  0.33333  0.66667  0.78055  1.0000
  Au  Au3       1.0  0.66667  0.33333  0.21945  1.0000
  Au  Au4       1.0  0.22062  0.77938  0.24522  1.0000
  Au  Au5       1.0  0.22062  0.44124  0.24522  1.0000
  Au  Au6       1.0  0.55876  0.77938  0.24522  1.0000
  Au  Au7       1.0  0.44124  0.22062  0.75478  1.0000
  Au  Au8       1.0  0.77938  0.55876  0.75478  1.0000
  Au  Au9       1.0  0.77938  0.22062  0.75478  1.0000
  Sn  Sn1       1.0  0.00000  0.00000  0.00000  1.0000
  Sn  Sn2       1.0  0.50000  0.00000  0.00000  1.0000
  Sn  Sn3       1.0  0.00000  0.50000  0.00000  1.0000
  Sn  Sn4       1.0  0.50000  0.50000  0.00000  1.0000
  Sn  Sn5       1.0  0.50000  0.00000  0.50000  1.0000
  Sn  Sn6       1.0  0.00000  0.50000  0.50000  1.0000
  Sn  Sn7       1.0  0.50000  0.50000  0.50000  1.0000
  Sn  Sn8       1.0  0.14468  0.85532  0.73076  1.0000
  Sn  Sn9       1.0  0.14468  0.28935  0.73076  1.0000
  Sn  Sn10      1.0  0.71065  0.85532  0.73076  1.0000
  Sn  Sn11      1.0  0.28935  0.14468  0.26924  1.0000
  Sn  Sn12      1.0  0.85532  0.71065  0.26924  1.0000
  Sn  Sn13      1.0  0.85532  0.14468  0.26924  1.0000
