data_image0
_chemical_formula_structural       Sn6Ag20
_chemical_formula_sum              "Sn6 Ag20"
_cell_length_a       10.9499
_cell_length_b       10.9499
_cell_length_c       4.86131
_cell_angle_alpha    90
_cell_angle_beta     90
_cell_angle_gamma    120

_space_group_name_H-M_alt    "P 1"
_space_group_IT_number       1

loop_
  _space_group_symop_operation_xyz
  'x, y, z'

loop_
  _atom_site_type_symbol
  _atom_site_label
  _atom_site_symmetry_multiplicity
  _atom_site_fract_x
  _atom_site_fract_y
  _atom_site_fract_z
  _atom_site_occupancy
  Sn  Sn1       1.0  0.63810  0.74391  0.25000  1.0000
  Sn  Sn2       1.0  0.25609  0.89419  0.25000  1.0000
  Sn  Sn3       1.0  0.10581  0.36190  0.25000  1.0000
  Sn  Sn4       1.0  0.36190  0.25609  0.75000  1.0000
  Sn  Sn5       1.0  0.74391  0.10581  0.75000  1.0000
  Sn  Sn6       1.0  0.89419  0.63810  0.75000  1.0000
  Ag  Ag1       1.0  0.87387  0.04976  0.25000  1.0000
  Ag  Ag2       1.0  0.95024  0.82411  0.25000  1.0000
  Ag  Ag3       1.0  0.17589  0.12613  0.25000  1.0000
  Ag  Ag4       1.0  0.12613  0.95024  0.75000  1.0000
  Ag  Ag5       1.0  0.04976  0.17589  0.75000  1.0000
  Ag  Ag6       1.0  0.82411  0.87387  0.75000  1.0000
  Ag  Ag7       1.0  0.56366  0.97741  0.25000  1.0000
  Ag  Ag8       1.0  0.02259  0.58625  0.25000  1.0000
  Ag  Ag9       1.0  0.41375  0.43634  0.25000  1.0000
  Ag  Ag10      1.0  0.43634  0.02259  0.75000  1.0000
  Ag  Ag11      1.0  0.97741  0.41375  0.75000  1.0000
  Ag  Ag12      1.0  0.58625  0.56366  0.75000  1.0000
  Ag  Ag13      1.0  0.79409  0.28539  0.25000  1.0000
  Ag  Ag14      1.0  0.71461  0.50871  0.25000  1.0000
  Ag  Ag15      1.0  0.49129  0.20591  0.25000  1.0000
  Ag  Ag16      1.0  0.20591  0.71461  0.75000  1.0000
  Ag  Ag17      1.0  0.28539  0.49129  0.75000  1.0000
  Ag  Ag18      1.0  0.50871  0.79409  0.75000  1.0000
  Ag  Ag19      1.0  0.66667  0.33333  0.75000  1.0000
  Ag  Ag20      1.0  0.33333  0.66667  0.25000  1.0000
