data_image0
_chemical_formula_structural       Sn2Au4
_chemical_formula_sum              "Sn2 Au4"
_cell_length_a       3.76993
_cell_length_b       3.82734
_cell_length_c       8.63744
_cell_angle_alpha    90
_cell_angle_beta     90
_cell_angle_gamma    90

_space_group_name_H-M_alt    "P 1"
_space_group_IT_number       1

loop_
  _space_group_symop_operation_xyz
  'x, y, z'

loop_
  _atom_site_type_symbol
  _atom_site_label
  _atom_site_symmetry_multiplicity
  _atom_site_fract_x
  _atom_site_fract_y
  _atom_site_fract_z
  _atom_site_occupancy
  Sn  Sn1       1.0  0.00000  0.00000  0.00000  1.0000
  Sn  Sn2       1.0  0.50000  0.50000  0.50000  1.0000
  Au  Au1       1.0  0.00000  0.00877  0.33265  1.0000
  Au  Au2       1.0  0.00000  0.99123  0.66735  1.0000
  Au  Au3       1.0  0.50000  0.50877  0.16735  1.0000
  Au  Au4       1.0  0.50000  0.49123  0.83265  1.0000
