data_image0
_chemical_formula_structural       Ag10Sn6
_chemical_formula_sum              "Ag10 Sn6"
_cell_length_a       8.23911
_cell_length_b       8.23911
_cell_length_c       8.23911
_cell_angle_alpha    126.397
_cell_angle_beta     126.397
_cell_angle_gamma    79.2361

_space_group_name_H-M_alt    "P 1"
_space_group_IT_number       1

loop_
  _space_group_symop_operation_xyz
  'x, y, z'

loop_
  _atom_site_type_symbol
  _atom_site_label
  _atom_site_symmetry_multiplicity
  _atom_site_fract_x
  _atom_site_fract_y
  _atom_site_fract_z
  _atom_site_occupancy
  Ag  Ag1       1.0  0.47255  0.68372  0.50000  1.0000
  Ag  Ag2       1.0  0.52745  0.31628  0.50000  1.0000
  Ag  Ag3       1.0  0.50000  0.50000  0.00000  1.0000
  Ag  Ag4       1.0  0.00000  0.00000  0.00000  1.0000
  Ag  Ag5       1.0  0.18372  0.97255  0.50000  1.0000
  Ag  Ag6       1.0  0.97255  0.47255  0.78883  1.0000
  Ag  Ag7       1.0  0.68372  0.18372  0.21117  1.0000
  Ag  Ag8       1.0  0.31628  0.81628  0.78883  1.0000
  Ag  Ag9       1.0  0.02745  0.52745  0.21117  1.0000
  Ag  Ag10      1.0  0.81628  0.02745  0.50000  1.0000
  Sn  Sn1       1.0  0.85142  0.64858  0.50000  1.0000
  Sn  Sn2       1.0  0.64858  0.14858  0.79716  1.0000
  Sn  Sn3       1.0  0.35142  0.85142  0.20284  1.0000
  Sn  Sn4       1.0  0.14858  0.35142  0.50000  1.0000
  Sn  Sn5       1.0  0.25000  0.25000  0.00000  1.0000
  Sn  Sn6       1.0  0.75000  0.75000  0.00000  1.0000
