data_image0
_chemical_formula_structural       Sn4Au8
_chemical_formula_sum              "Sn4 Au8"
_cell_length_a       10.5466
_cell_length_b       10.5466
_cell_length_c       6.48451
_cell_angle_alpha    90
_cell_angle_beta     90
_cell_angle_gamma    158.661

_space_group_name_H-M_alt    "P 1"
_space_group_IT_number       1

loop_
  _space_group_symop_operation_xyz
  'x, y, z'

loop_
  _atom_site_type_symbol
  _atom_site_label
  _atom_site_symmetry_multiplicity
  _atom_site_fract_x
  _atom_site_fract_y
  _atom_site_fract_z
  _atom_site_occupancy
  Sn  Sn1       1.0  0.52610  0.47390  0.80242  1.0000
  Sn  Sn2       1.0  0.47390  0.52610  0.30242  1.0000
  Sn  Sn3       1.0  0.21652  0.78348  0.28891  1.0000
  Sn  Sn4       1.0  0.78348  0.21652  0.78891  1.0000
  Au  Au1       1.0  0.93480  0.06520  0.99289  1.0000
  Au  Au2       1.0  0.06520  0.93480  0.49289  1.0000
  Au  Au3       1.0  0.16706  0.83294  0.88497  1.0000
  Au  Au4       1.0  0.83294  0.16706  0.38497  1.0000
  Au  Au5       1.0  0.33228  0.66772  0.06267  1.0000
  Au  Au6       1.0  0.66772  0.33228  0.56267  1.0000
  Au  Au7       1.0  0.60743  0.39257  0.15384  1.0000
  Au  Au8       1.0  0.39257  0.60743  0.65384  1.0000
