data_image0
_chemical_formula_structural       Sn6Ag6
_chemical_formula_sum              "Sn6 Ag6"
_cell_length_a       5.08643
_cell_length_b       5.08643
_cell_length_c       12.3719
_cell_angle_alpha    90
_cell_angle_beta     90
_cell_angle_gamma    120

_space_group_name_H-M_alt    "P 1"
_space_group_IT_number       1

loop_
  _space_group_symop_operation_xyz
  'x, y, z'

loop_
  _atom_site_type_symbol
  _atom_site_label
  _atom_site_symmetry_multiplicity
  _atom_site_fract_x
  _atom_site_fract_y
  _atom_site_fract_z
  _atom_site_occupancy
  Sn  Sn1       1.0  0.33333  0.66667  0.75000  1.0000
  Sn  Sn2       1.0  0.66667  0.33333  0.25000  1.0000
  Sn  Sn3       1.0  0.33333  0.66667  0.02361  1.0000
  Sn  Sn4       1.0  0.66667  0.33333  0.52361  1.0000
  Sn  Sn5       1.0  0.66667  0.33333  0.97639  1.0000
  Sn  Sn6       1.0  0.33333  0.66667  0.47639  1.0000
  Ag  Ag1       1.0  0.33333  0.66667  0.25000  1.0000
  Ag  Ag2       1.0  0.66667  0.33333  0.75000  1.0000
  Ag  Ag3       1.0  0.00000  0.00000  0.13203  1.0000
  Ag  Ag4       1.0  0.00000  0.00000  0.63203  1.0000
  Ag  Ag5       1.0  0.00000  0.00000  0.86797  1.0000
  Ag  Ag6       1.0  0.00000  0.00000  0.36797  1.0000
