data_image0
_chemical_formula_structural       Sn3Ag6
_chemical_formula_sum              "Sn3 Ag6"
_cell_length_a       5.1665
_cell_length_b       5.1665
_cell_length_c       8.06272
_cell_angle_alpha    90
_cell_angle_beta     90
_cell_angle_gamma    120

_space_group_name_H-M_alt    "P 1"
_space_group_IT_number       1

loop_
  _space_group_symop_operation_xyz
  'x, y, z'

loop_
  _atom_site_type_symbol
  _atom_site_label
  _atom_site_symmetry_multiplicity
  _atom_site_fract_x
  _atom_site_fract_y
  _atom_site_fract_z
  _atom_site_occupancy
  Sn  Sn1       1.0  0.00000  0.50000  0.16667  1.0000
  Sn  Sn2       1.0  0.50000  0.50000  0.83333  1.0000
  Sn  Sn3       1.0  0.50000  0.00000  0.50000  1.0000
  Ag  Ag1       1.0  0.83493  0.66986  0.50000  1.0000
  Ag  Ag2       1.0  0.16507  0.83493  0.83333  1.0000
  Ag  Ag3       1.0  0.66986  0.83493  0.16667  1.0000
  Ag  Ag4       1.0  0.16507  0.33014  0.50000  1.0000
  Ag  Ag5       1.0  0.83493  0.16507  0.83333  1.0000
  Ag  Ag6       1.0  0.33014  0.16507  0.16667  1.0000
