data_image0
_chemical_formula_structural       Sn12Ag28
_chemical_formula_sum              "Sn12 Ag28"
_cell_length_a       7.40883
_cell_length_b       10.1911
_cell_length_c       11.476
_cell_angle_alpha    107.664
_cell_angle_beta     97.9141
_cell_angle_gamma    89.6669

_space_group_name_H-M_alt    "P 1"
_space_group_IT_number       1

loop_
  _space_group_symop_operation_xyz
  'x, y, z'

loop_
  _atom_site_type_symbol
  _atom_site_label
  _atom_site_symmetry_multiplicity
  _atom_site_fract_x
  _atom_site_fract_y
  _atom_site_fract_z
  _atom_site_occupancy
  Sn  Sn1       1.0  0.20813  0.47174  0.94795  1.0000
  Sn  Sn2       1.0  0.79187  0.52826  0.05205  1.0000
  Sn  Sn3       1.0  0.37907  0.99918  0.62751  1.0000
  Sn  Sn4       1.0  0.62093  0.00082  0.37249  1.0000
  Sn  Sn5       1.0  0.07559  0.71777  0.51152  1.0000
  Sn  Sn6       1.0  0.92441  0.28223  0.48848  1.0000
  Sn  Sn7       1.0  0.85672  0.73614  0.81281  1.0000
  Sn  Sn8       1.0  0.14328  0.26386  0.18719  1.0000
  Sn  Sn9       1.0  0.68292  0.15849  0.10707  1.0000
  Sn  Sn10      1.0  0.31708  0.84151  0.89293  1.0000
  Sn  Sn11      1.0  0.47705  0.36835  0.62778  1.0000
  Sn  Sn12      1.0  0.52295  0.63165  0.37222  1.0000
  Ag  Ag1       1.0  0.00000  0.00000  0.00000  1.0000
  Ag  Ag2       1.0  0.00000  0.00000  0.50000  1.0000
  Ag  Ag3       1.0  0.68997  0.85460  0.05226  1.0000
  Ag  Ag4       1.0  0.31003  0.14540  0.94774  1.0000
  Ag  Ag5       1.0  0.15414  0.54486  0.70340  1.0000
  Ag  Ag6       1.0  0.84586  0.45514  0.29660  1.0000
  Ag  Ag7       1.0  0.84316  0.43434  0.77491  1.0000
  Ag  Ag8       1.0  0.15684  0.56566  0.22509  1.0000
  Ag  Ag9       1.0  0.54644  0.30015  0.86260  1.0000
  Ag  Ag10      1.0  0.45356  0.69985  0.13740  1.0000
  Ag  Ag11      1.0  0.72286  0.84372  0.57825  1.0000
  Ag  Ag12      1.0  0.27714  0.15628  0.42175  1.0000
  Ag  Ag13      1.0  0.65105  0.00218  0.83884  1.0000
  Ag  Ag14      1.0  0.34895  0.99782  0.16116  1.0000
  Ag  Ag15      1.0  0.74525  0.14515  0.65919  1.0000
  Ag  Ag16      1.0  0.25475  0.85485  0.34081  1.0000
  Ag  Ag17      1.0  0.44349  0.69771  0.64787  1.0000
  Ag  Ag18      1.0  0.55651  0.30229  0.35213  1.0000
  Ag  Ag19      1.0  0.15261  0.24388  0.71718  1.0000
  Ag  Ag20      1.0  0.84739  0.75612  0.28282  1.0000
  Ag  Ag21      1.0  0.96203  0.02101  0.25121  1.0000
  Ag  Ag22      1.0  0.03797  0.97899  0.74879  1.0000
  Ag  Ag23      1.0  0.23278  0.45259  0.44020  1.0000
  Ag  Ag24      1.0  0.76722  0.54741  0.55980  1.0000
  Ag  Ag25      1.0  0.52292  0.59844  0.86735  1.0000
  Ag  Ag26      1.0  0.47708  0.40156  0.13265  1.0000
  Ag  Ag27      1.0  0.92997  0.24253  0.92147  1.0000
  Ag  Ag28      1.0  0.07003  0.75747  0.07853  1.0000
