data_image0
_chemical_formula_structural       Sn6Ag16
_chemical_formula_sum              "Sn6 Ag16"
_cell_length_a       5.39915
_cell_length_b       6.21338
_cell_length_c       14.354
_cell_angle_alpha    73.5841
_cell_angle_beta     90
_cell_angle_gamma    90

_space_group_name_H-M_alt    "P 1"
_space_group_IT_number       1

loop_
  _space_group_symop_operation_xyz
  'x, y, z'

loop_
  _atom_site_type_symbol
  _atom_site_label
  _atom_site_symmetry_multiplicity
  _atom_site_fract_x
  _atom_site_fract_y
  _atom_site_fract_z
  _atom_site_occupancy
  Sn  Sn1       1.0  0.58024  0.86781  0.74190  1.0000
  Sn  Sn2       1.0  0.41976  0.13219  0.25810  1.0000
  Sn  Sn3       1.0  0.50000  0.00000  0.00000  1.0000
  Sn  Sn4       1.0  0.08024  0.13219  0.75810  1.0000
  Sn  Sn5       1.0  0.91976  0.86781  0.24190  1.0000
  Sn  Sn6       1.0  0.00000  0.00000  0.50000  1.0000
  Ag  Ag1       1.0  0.47831  0.62620  0.19569  1.0000
  Ag  Ag2       1.0  0.68665  0.31235  0.62048  1.0000
  Ag  Ag3       1.0  0.69440  0.62511  0.93866  1.0000
  Ag  Ag4       1.0  0.52356  0.23184  0.43440  1.0000
  Ag  Ag5       1.0  0.97644  0.23184  0.93440  1.0000
  Ag  Ag6       1.0  0.81335  0.31235  0.12048  1.0000
  Ag  Ag7       1.0  0.80560  0.62511  0.43866  1.0000
  Ag  Ag8       1.0  0.02169  0.62620  0.69569  1.0000
  Ag  Ag9       1.0  0.18665  0.68765  0.87952  1.0000
  Ag  Ag10      1.0  0.02356  0.76816  0.06560  1.0000
  Ag  Ag11      1.0  0.19440  0.37489  0.56134  1.0000
  Ag  Ag12      1.0  0.97831  0.37380  0.30431  1.0000
  Ag  Ag13      1.0  0.30560  0.37489  0.06134  1.0000
  Ag  Ag14      1.0  0.52169  0.37380  0.80431  1.0000
  Ag  Ag15      1.0  0.31335  0.68765  0.37952  1.0000
  Ag  Ag16      1.0  0.47644  0.76816  0.56560  1.0000
