data_image0
_chemical_formula_structural       Sn10Ag6
_chemical_formula_sum              "Sn10 Ag6"
_cell_length_a       8.54261
_cell_length_b       8.54261
_cell_length_c       8.54261
_cell_angle_alpha    97.5644
_cell_angle_beta     97.5644
_cell_angle_gamma    137.453

_space_group_name_H-M_alt    "P 1"
_space_group_IT_number       1

loop_
  _space_group_symop_operation_xyz
  'x, y, z'

loop_
  _atom_site_type_symbol
  _atom_site_label
  _atom_site_symmetry_multiplicity
  _atom_site_fract_x
  _atom_site_fract_y
  _atom_site_fract_z
  _atom_site_occupancy
  Sn  Sn1       1.0  0.57397  0.28207  0.85604  1.0000
  Sn  Sn2       1.0  0.42603  0.71793  0.14396  1.0000
  Sn  Sn3       1.0  0.71793  0.57397  0.29190  1.0000
  Sn  Sn4       1.0  0.28207  0.42603  0.70810  1.0000
  Sn  Sn5       1.0  0.92603  0.78207  0.70810  1.0000
  Sn  Sn6       1.0  0.21793  0.92603  0.14396  1.0000
  Sn  Sn7       1.0  0.25000  0.75000  0.50000  1.0000
  Sn  Sn8       1.0  0.75000  0.25000  0.50000  1.0000
  Sn  Sn9       1.0  0.07397  0.21793  0.29190  1.0000
  Sn  Sn10      1.0  0.78207  0.07397  0.85604  1.0000
  Ag  Ag1       1.0  0.83582  0.33582  0.17164  1.0000
  Ag  Ag2       1.0  0.66418  0.83582  0.50000  1.0000
  Ag  Ag3       1.0  0.33582  0.16418  0.50000  1.0000
  Ag  Ag4       1.0  0.16418  0.66418  0.82836  1.0000
  Ag  Ag5       1.0  0.75000  0.75000  0.00000  1.0000
  Ag  Ag6       1.0  0.25000  0.25000  0.00000  1.0000
