data_image0
_chemical_formula_structural       SnAg4
_chemical_formula_sum              "Sn1 Ag4"
_cell_length_a       5.21911
_cell_length_b       5.21911
_cell_length_c       5.21911
_cell_angle_alpha    99.3605
_cell_angle_beta     99.3605
_cell_angle_gamma    132.431

_space_group_name_H-M_alt    "P 1"
_space_group_IT_number       1

loop_
  _space_group_symop_operation_xyz
  'x, y, z'

loop_
  _atom_site_type_symbol
  _atom_site_label
  _atom_site_symmetry_multiplicity
  _atom_site_fract_x
  _atom_site_fract_y
  _atom_site_fract_z
  _atom_site_occupancy
  Sn  Sn1       1.0  0.00000  0.00000  0.00000  1.0000
  Ag  Ag1       1.0  0.60140  0.19515  0.79654  1.0000
  Ag  Ag2       1.0  0.39860  0.80485  0.20346  1.0000
  Ag  Ag3       1.0  0.80485  0.60140  0.40625  1.0000
  Ag  Ag4       1.0  0.19515  0.39860  0.59375  1.0000
