data_image0
_chemical_formula_structural       Sn2Ag2
_chemical_formula_sum              "Sn2 Ag2"
_cell_length_a       4.86606
_cell_length_b       4.86606
_cell_length_c       5.65135
_cell_angle_alpha    90
_cell_angle_beta     90
_cell_angle_gamma    120

_space_group_name_H-M_alt    "P 1"
_space_group_IT_number       1

loop_
  _space_group_symop_operation_xyz
  'x, y, z'

loop_
  _atom_site_type_symbol
  _atom_site_label
  _atom_site_symmetry_multiplicity
  _atom_site_fract_x
  _atom_site_fract_y
  _atom_site_fract_z
  _atom_site_occupancy
  Sn  Sn1       1.0  0.66667  0.33333  0.43807  1.0000
  Sn  Sn2       1.0  0.33333  0.66667  0.93807  1.0000
  Ag  Ag1       1.0  0.66667  0.33333  0.93779  1.0000
  Ag  Ag2       1.0  0.33333  0.66667  0.43779  1.0000
