data_image0
_chemical_formula_structural       Sn8Ag8
_chemical_formula_sum              "Sn8 Ag8"
_cell_length_a       8.39467
_cell_length_b       8.39467
_cell_length_c       5.90473
_cell_angle_alpha    90
_cell_angle_beta     90
_cell_angle_gamma    90

_space_group_name_H-M_alt    "P 1"
_space_group_IT_number       1

loop_
  _space_group_symop_operation_xyz
  'x, y, z'

loop_
  _atom_site_type_symbol
  _atom_site_label
  _atom_site_symmetry_multiplicity
  _atom_site_fract_x
  _atom_site_fract_y
  _atom_site_fract_z
  _atom_site_occupancy
  Sn  Sn1       1.0  0.52353  0.67317  0.00000  1.0000
  Sn  Sn2       1.0  0.32683  0.52353  0.50000  1.0000
  Sn  Sn3       1.0  0.67317  0.47647  0.50000  1.0000
  Sn  Sn4       1.0  0.47647  0.32683  0.00000  1.0000
  Sn  Sn5       1.0  0.50000  0.00000  0.50000  1.0000
  Sn  Sn6       1.0  0.00000  0.50000  0.00000  1.0000
  Sn  Sn7       1.0  0.00000  0.00000  0.75000  1.0000
  Sn  Sn8       1.0  0.00000  0.00000  0.25000  1.0000
  Ag  Ag1       1.0  0.19509  0.26470  0.74536  1.0000
  Ag  Ag2       1.0  0.73530  0.19509  0.24536  1.0000
  Ag  Ag3       1.0  0.26470  0.80491  0.24536  1.0000
  Ag  Ag4       1.0  0.80491  0.73530  0.74536  1.0000
  Ag  Ag5       1.0  0.80491  0.73530  0.25464  1.0000
  Ag  Ag6       1.0  0.26470  0.80491  0.75464  1.0000
  Ag  Ag7       1.0  0.73530  0.19509  0.75464  1.0000
  Ag  Ag8       1.0  0.19509  0.26470  0.25464  1.0000
