data_image0
_chemical_formula_structural       Sn4Ag4
_chemical_formula_sum              "Sn4 Ag4"
_cell_length_a       5.69442
_cell_length_b       5.69442
_cell_length_c       5.69442
_cell_angle_alpha    90
_cell_angle_beta     90
_cell_angle_gamma    90

_space_group_name_H-M_alt    "P 1"
_space_group_IT_number       1

loop_
  _space_group_symop_operation_xyz
  'x, y, z'

loop_
  _atom_site_type_symbol
  _atom_site_label
  _atom_site_symmetry_multiplicity
  _atom_site_fract_x
  _atom_site_fract_y
  _atom_site_fract_z
  _atom_site_occupancy
  Sn  Sn1       1.0  0.85032  0.64968  0.35032  1.0000
  Sn  Sn2       1.0  0.64968  0.35032  0.85032  1.0000
  Sn  Sn3       1.0  0.35032  0.85032  0.64968  1.0000
  Sn  Sn4       1.0  0.14968  0.14968  0.14968  1.0000
  Ag  Ag1       1.0  0.15684  0.34316  0.65684  1.0000
  Ag  Ag2       1.0  0.34316  0.65684  0.15684  1.0000
  Ag  Ag3       1.0  0.65684  0.15684  0.34316  1.0000
  Ag  Ag4       1.0  0.84316  0.84316  0.84316  1.0000
