data_image0
_chemical_formula_structural       Au3Sn3
_chemical_formula_sum              "Au3 Sn3"
_cell_length_a       3.92834
_cell_length_b       3.92834
_cell_length_c       10.7028
_cell_angle_alpha    90
_cell_angle_beta     90
_cell_angle_gamma    120

_space_group_name_H-M_alt    "P 1"
_space_group_IT_number       1

loop_
  _space_group_symop_operation_xyz
  'x, y, z'

loop_
  _atom_site_type_symbol
  _atom_site_label
  _atom_site_symmetry_multiplicity
  _atom_site_fract_x
  _atom_site_fract_y
  _atom_site_fract_z
  _atom_site_occupancy
  Au  Au1       1.0  0.33175  0.33175  0.00000  1.0000
  Au  Au2       1.0  1.00000  0.66825  0.66667  1.0000
  Au  Au3       1.0  0.66825  1.00000  0.33333  1.0000
  Sn  Sn1       1.0  0.33271  0.33271  0.50000  1.0000
  Sn  Sn2       1.0  0.00000  0.66729  0.16667  1.0000
  Sn  Sn3       1.0  0.66729  0.00000  0.83333  1.0000
