data_image0
_chemical_formula_structural       Au6Sn2
_chemical_formula_sum              "Au6 Sn2"
_cell_length_a       5.12557
_cell_length_b       5.13662
_cell_length_c       6.00974
_cell_angle_alpha    90
_cell_angle_beta     90
_cell_angle_gamma    90

_space_group_name_H-M_alt    "P 1"
_space_group_IT_number       1

loop_
  _space_group_symop_operation_xyz
  'x, y, z'

loop_
  _atom_site_type_symbol
  _atom_site_label
  _atom_site_symmetry_multiplicity
  _atom_site_fract_x
  _atom_site_fract_y
  _atom_site_fract_z
  _atom_site_occupancy
  Au  Au1       1.0  0.00000  0.33383  0.25300  1.0000
  Au  Au2       1.0  0.00000  0.33383  0.74700  1.0000
  Au  Au3       1.0  0.50000  0.66617  0.24700  1.0000
  Au  Au4       1.0  0.50000  0.66617  0.75300  1.0000
  Au  Au5       1.0  0.00000  0.82991  0.50000  1.0000
  Au  Au6       1.0  0.50000  0.17009  0.00000  1.0000
  Sn  Sn1       1.0  0.00000  0.83347  0.00000  1.0000
  Sn  Sn2       1.0  0.50000  0.16653  0.50000  1.0000
