data_image0
_chemical_formula_structural       Ag8Sn4
_chemical_formula_sum              "Ag8 Sn4"
_cell_length_a       3.68429
_cell_length_b       8.88365
_cell_length_c       9.58481
_cell_angle_alpha    52.7581
_cell_angle_beta     90
_cell_angle_gamma    90

_space_group_name_H-M_alt    "P 1"
_space_group_IT_number       1

loop_
  _space_group_symop_operation_xyz
  'x, y, z'

loop_
  _atom_site_type_symbol
  _atom_site_label
  _atom_site_symmetry_multiplicity
  _atom_site_fract_x
  _atom_site_fract_y
  _atom_site_fract_z
  _atom_site_occupancy
  Ag  Ag1       1.0  0.25162  0.00902  0.36458  1.0000
  Ag  Ag2       1.0  0.75162  0.99098  0.13542  1.0000
  Ag  Ag3       1.0  0.74838  0.99098  0.63542  1.0000
  Ag  Ag4       1.0  0.24838  0.00902  0.86458  1.0000
  Ag  Ag5       1.0  0.75042  0.33122  0.64008  1.0000
  Ag  Ag6       1.0  0.25042  0.66878  0.85992  1.0000
  Ag  Ag7       1.0  0.24958  0.66878  0.35992  1.0000
  Ag  Ag8       1.0  0.74958  0.33122  0.14008  1.0000
  Sn  Sn1       1.0  0.25292  0.31127  0.90787  1.0000
  Sn  Sn2       1.0  0.75292  0.68873  0.59213  1.0000
  Sn  Sn3       1.0  0.74708  0.68873  0.09213  1.0000
  Sn  Sn4       1.0  0.24708  0.31127  0.40787  1.0000
