data_image0
_chemical_formula_structural       Au4Sn4
_chemical_formula_sum              "Au4 Sn4"
_cell_length_a       3.60781
_cell_length_b       6.42573
_cell_length_c       8.02416
_cell_angle_alpha    90
_cell_angle_beta     90
_cell_angle_gamma    90

_space_group_name_H-M_alt    "P 1"
_space_group_IT_number       1

loop_
  _space_group_symop_operation_xyz
  'x, y, z'

loop_
  _atom_site_type_symbol
  _atom_site_label
  _atom_site_symmetry_multiplicity
  _atom_site_fract_x
  _atom_site_fract_y
  _atom_site_fract_z
  _atom_site_occupancy
  Au  Au1       1.0  0.25000  0.67851  0.04125  1.0000
  Au  Au2       1.0  0.75000  0.32149  0.95875  1.0000
  Au  Au3       1.0  0.25000  0.17851  0.45875  1.0000
  Au  Au4       1.0  0.75000  0.82149  0.54125  1.0000
  Sn  Sn1       1.0  0.25000  0.52290  0.69729  1.0000
  Sn  Sn2       1.0  0.75000  0.47710  0.30271  1.0000
  Sn  Sn3       1.0  0.25000  0.02290  0.80271  1.0000
  Sn  Sn4       1.0  0.75000  0.97710  0.19729  1.0000
