data_image0
_chemical_formula_structural       SnAg2
_chemical_formula_sum              "Sn1 Ag2"
_cell_length_a       3.2208
_cell_length_b       3.2208
_cell_length_c       7.00204
_cell_angle_alpha    89.94
_cell_angle_beta     89.94
_cell_angle_gamma    60.3217

_space_group_name_H-M_alt    "P 1"
_space_group_IT_number       1

loop_
  _space_group_symop_operation_xyz
  'x, y, z'

loop_
  _atom_site_type_symbol
  _atom_site_label
  _atom_site_symmetry_multiplicity
  _atom_site_fract_x
  _atom_site_fract_y
  _atom_site_fract_z
  _atom_site_occupancy
  Sn  Sn1       1.0  0.65641  0.34359  0.50000  1.0000
  Ag  Ag1       1.0  0.34174  0.99815  0.84165  1.0000
  Ag  Ag2       1.0  0.00185  0.65826  0.15835  1.0000
