data_image0
_chemical_formula_structural       Sn4Ag12
_chemical_formula_sum              "Sn4 Ag12"
_cell_length_a       9.21763
_cell_length_b       9.21763
_cell_length_c       6.00008
_cell_angle_alpha    90
_cell_angle_beta     90
_cell_angle_gamma    142.064

_space_group_name_H-M_alt    "P 1"
_space_group_IT_number       1

loop_
  _space_group_symop_operation_xyz
  'x, y, z'

loop_
  _atom_site_type_symbol
  _atom_site_label
  _atom_site_symmetry_multiplicity
  _atom_site_fract_x
  _atom_site_fract_y
  _atom_site_fract_z
  _atom_site_occupancy
  Sn  Sn1       1.0  0.62673  0.37327  0.00000  1.0000
  Sn  Sn2       1.0  0.37327  0.62673  0.00000  1.0000
  Sn  Sn3       1.0  0.12673  0.87327  0.50000  1.0000
  Sn  Sn4       1.0  0.87327  0.12673  0.50000  1.0000
  Ag  Ag1       1.0  0.74738  0.74738  0.24840  1.0000
  Ag  Ag2       1.0  0.24738  0.24738  0.25160  1.0000
  Ag  Ag3       1.0  0.75262  0.75262  0.74840  1.0000
  Ag  Ag4       1.0  0.37604  0.62396  0.50000  1.0000
  Ag  Ag5       1.0  0.00373  0.50373  0.75000  1.0000
  Ag  Ag6       1.0  0.87604  0.12396  0.00000  1.0000
  Ag  Ag7       1.0  0.99627  0.49627  0.25000  1.0000
  Ag  Ag8       1.0  0.25262  0.25262  0.75160  1.0000
  Ag  Ag9       1.0  0.62396  0.37604  0.50000  1.0000
  Ag  Ag10      1.0  0.12396  0.87604  0.00000  1.0000
  Ag  Ag11      1.0  0.49627  0.99627  0.25000  1.0000
  Ag  Ag12      1.0  0.50373  0.00373  0.75000  1.0000
