data_image0
_chemical_formula_structural       SnAu4
_chemical_formula_sum              "Sn1 Au4"
_cell_length_a       5.2272
_cell_length_b       5.2272
_cell_length_c       5.2272
_cell_angle_alpha    99.3789
_cell_angle_beta     99.3789
_cell_angle_gamma    132.382

_space_group_name_H-M_alt    "P 1"
_space_group_IT_number       1

loop_
  _space_group_symop_operation_xyz
  'x, y, z'

loop_
  _atom_site_type_symbol
  _atom_site_label
  _atom_site_symmetry_multiplicity
  _atom_site_fract_x
  _atom_site_fract_y
  _atom_site_fract_z
  _atom_site_occupancy
  Sn  Sn1       1.0  0.00000  0.00000  0.00000  1.0000
  Au  Au1       1.0  0.60083  0.80363  0.40445  1.0000
  Au  Au2       1.0  0.39917  0.19637  0.59555  1.0000
  Au  Au3       1.0  0.19637  0.60083  0.79720  1.0000
  Au  Au4       1.0  0.80363  0.39917  0.20280  1.0000
