data_image0
_chemical_formula_structural       Sn4Au18
_chemical_formula_sum              "Sn4 Au18"
_cell_length_a       8.29577
_cell_length_b       7.3482
_cell_length_c       7.50748
_cell_angle_alpha    84.6299
_cell_angle_beta     81.814
_cell_angle_gamma    81.1646

_space_group_name_H-M_alt    "P 1"
_space_group_IT_number       1

loop_
  _space_group_symop_operation_xyz
  'x, y, z'

loop_
  _atom_site_type_symbol
  _atom_site_label
  _atom_site_symmetry_multiplicity
  _atom_site_fract_x
  _atom_site_fract_y
  _atom_site_fract_z
  _atom_site_occupancy
  Sn  Sn1       1.0  0.03327  0.22018  0.09507  1.0000
  Sn  Sn2       1.0  0.96673  0.77982  0.90493  1.0000
  Sn  Sn3       1.0  0.46884  0.37106  0.32671  1.0000
  Sn  Sn4       1.0  0.53116  0.62894  0.67329  1.0000
  Au  Au1       1.0  0.82698  0.26766  0.42957  1.0000
  Au  Au2       1.0  0.17302  0.73234  0.57043  1.0000
  Au  Au3       1.0  0.21486  0.40138  0.79391  1.0000
  Au  Au4       1.0  0.78514  0.59862  0.20609  1.0000
  Au  Au5       1.0  0.60515  0.82974  0.94960  1.0000
  Au  Au6       1.0  0.39485  0.17026  0.05040  1.0000
  Au  Au7       1.0  0.01055  0.86174  0.26128  1.0000
  Au  Au8       1.0  0.98945  0.13826  0.73872  1.0000
  Au  Au9       1.0  0.22976  0.09136  0.40939  1.0000
  Au  Au10      1.0  0.77024  0.90864  0.59061  1.0000
  Au  Au11      1.0  0.54760  0.23695  0.68455  1.0000
  Au  Au12      1.0  0.45240  0.76305  0.31545  1.0000
  Au  Au13      1.0  0.28991  0.66259  0.03039  1.0000
  Au  Au14      1.0  0.71009  0.33741  0.96961  1.0000
  Au  Au15      1.0  0.89025  0.52645  0.66927  1.0000
  Au  Au16      1.0  0.10975  0.47355  0.33073  1.0000
  Au  Au17      1.0  0.67709  0.02666  0.23977  1.0000
  Au  Au18      1.0  0.32291  0.97334  0.76023  1.0000
