data_image0
_chemical_formula_structural       Sn6Au4
_chemical_formula_sum              "Sn6 Au4"
_cell_length_a       7.85911
_cell_length_b       7.85911
_cell_length_c       4.49713
_cell_angle_alpha    90
_cell_angle_beta     90
_cell_angle_gamma    90

_space_group_name_H-M_alt    "P 1"
_space_group_IT_number       1

loop_
  _space_group_symop_operation_xyz
  'x, y, z'

loop_
  _atom_site_type_symbol
  _atom_site_label
  _atom_site_symmetry_multiplicity
  _atom_site_fract_x
  _atom_site_fract_y
  _atom_site_fract_z
  _atom_site_occupancy
  Sn  Sn1       1.0  0.00000  0.00000  0.00000  1.0000
  Sn  Sn2       1.0  0.50000  0.50000  0.00000  1.0000
  Sn  Sn3       1.0  0.14155  0.64155  0.68296  1.0000
  Sn  Sn4       1.0  0.35845  0.14155  0.31704  1.0000
  Sn  Sn5       1.0  0.64155  0.85845  0.31704  1.0000
  Sn  Sn6       1.0  0.85845  0.35845  0.68296  1.0000
  Au  Au1       1.0  0.28971  0.78971  0.19276  1.0000
  Au  Au2       1.0  0.21029  0.28971  0.80724  1.0000
  Au  Au3       1.0  0.78971  0.71029  0.80724  1.0000
  Au  Au4       1.0  0.71029  0.21029  0.19276  1.0000
