data_image0
_chemical_formula_structural       Sn9Ag13
_chemical_formula_sum              "Sn9 Ag13"
_cell_length_a       7.59668
_cell_length_b       7.59668
_cell_length_c       10.0608
_cell_angle_alpha    65.4108
_cell_angle_beta     65.4108
_cell_angle_gamma    77.525

_space_group_name_H-M_alt    "P 1"
_space_group_IT_number       1

loop_
  _space_group_symop_operation_xyz
  'x, y, z'

loop_
  _atom_site_type_symbol
  _atom_site_label
  _atom_site_symmetry_multiplicity
  _atom_site_fract_x
  _atom_site_fract_y
  _atom_site_fract_z
  _atom_site_occupancy
  Sn  Sn1       1.0  0.27785  0.27785  0.16828  1.0000
  Sn  Sn2       1.0  0.76556  0.17246  0.30112  1.0000
  Sn  Sn3       1.0  0.83576  0.83576  0.11432  1.0000
  Sn  Sn4       1.0  0.16424  0.16424  0.88568  1.0000
  Sn  Sn5       1.0  0.50000  0.50000  0.50000  1.0000
  Sn  Sn6       1.0  0.72215  0.72215  0.83172  1.0000
  Sn  Sn7       1.0  0.17246  0.76556  0.30112  1.0000
  Sn  Sn8       1.0  0.82754  0.23444  0.69888  1.0000
  Sn  Sn9       1.0  0.23444  0.82754  0.69888  1.0000
  Ag  Ag1       1.0  0.53878  0.06256  0.65239  1.0000
  Ag  Ag2       1.0  0.06256  0.53878  0.65239  1.0000
  Ag  Ag3       1.0  0.54156  0.54156  0.17843  1.0000
  Ag  Ag4       1.0  0.74002  0.74002  0.51551  1.0000
  Ag  Ag5       1.0  0.46122  0.93744  0.34761  1.0000
  Ag  Ag6       1.0  0.72543  0.27457  0.00000  1.0000
  Ag  Ag7       1.0  0.25998  0.25998  0.48449  1.0000
  Ag  Ag8       1.0  0.45844  0.45844  0.82157  1.0000
  Ag  Ag9       1.0  0.27457  0.72543  0.00000  1.0000
  Ag  Ag10      1.0  0.00000  0.00000  0.50000  1.0000
  Ag  Ag11      1.0  0.93744  0.46122  0.34761  1.0000
  Ag  Ag12      1.0  0.00000  0.50000  0.00000  1.0000
  Ag  Ag13      1.0  0.50000  0.00000  0.00000  1.0000
