data_image0
_chemical_formula_structural       Sn3Br8
_chemical_formula_sum              "Sn3 Br8"
_cell_length_a       7.27315
_cell_length_b       7.27315
_cell_length_c       7.27315
_cell_angle_alpha    93.3346
_cell_angle_beta     93.3346
_cell_angle_gamma    93.3346

_space_group_name_H-M_alt    "P 1"
_space_group_IT_number       1

loop_
  _space_group_symop_operation_xyz
  'x, y, z'

loop_
  _atom_site_type_symbol
  _atom_site_label
  _atom_site_symmetry_multiplicity
  _atom_site_fract_x
  _atom_site_fract_y
  _atom_site_fract_z
  _atom_site_occupancy
  Sn  Sn1       1.0  0.50000  0.00000  0.50000  1.0000
  Sn  Sn2       1.0  0.00000  0.50000  0.50000  1.0000
  Sn  Sn3       1.0  0.50000  0.50000  0.00000  1.0000
  Br  Br1       1.0  0.62623  0.84988  0.16994  1.0000
  Br  Br2       1.0  0.84988  0.16994  0.62623  1.0000
  Br  Br3       1.0  0.16994  0.62623  0.84988  1.0000
  Br  Br4       1.0  0.66419  0.66419  0.66419  1.0000
  Br  Br5       1.0  0.33581  0.33581  0.33581  1.0000
  Br  Br6       1.0  0.83006  0.37377  0.15012  1.0000
  Br  Br7       1.0  0.15012  0.83006  0.37377  1.0000
  Br  Br8       1.0  0.37377  0.15012  0.83006  1.0000
