data_image0
_chemical_formula_structural       Sn3Hg4
_chemical_formula_sum              "Sn3 Hg4"
_cell_length_a       6.91474
_cell_length_b       6.91474
_cell_length_c       8.36297
_cell_angle_alpha    51.1241
_cell_angle_beta     51.1241
_cell_angle_gamma    43.9315

_space_group_name_H-M_alt    "P 1"
_space_group_IT_number       1

loop_
  _space_group_symop_operation_xyz
  'x, y, z'

loop_
  _atom_site_type_symbol
  _atom_site_label
  _atom_site_symmetry_multiplicity
  _atom_site_fract_x
  _atom_site_fract_y
  _atom_site_fract_z
  _atom_site_occupancy
  Sn  Sn1       1.0  0.00000  0.00000  0.00000  1.0000
  Sn  Sn2       1.0  0.32964  0.32964  0.67374  1.0000
  Sn  Sn3       1.0  0.67036  0.67036  0.32626  1.0000
  Hg  Hg1       1.0  0.12773  0.12773  0.53038  1.0000
  Hg  Hg2       1.0  0.87227  0.87227  0.46962  1.0000
  Hg  Hg3       1.0  0.61186  0.61186  0.04580  1.0000
  Hg  Hg4       1.0  0.38814  0.38814  0.95420  1.0000
