data_image0
_chemical_formula_structural       Au8Sn4
_chemical_formula_sum              "Au8 Sn4"
_cell_length_a       4.30936
_cell_length_b       7.96865
_cell_length_c       9.38074
_cell_angle_alpha    54.8154
_cell_angle_beta     90
_cell_angle_gamma    90

_space_group_name_H-M_alt    "P 1"
_space_group_IT_number       1

loop_
  _space_group_symop_operation_xyz
  'x, y, z'

loop_
  _atom_site_type_symbol
  _atom_site_label
  _atom_site_symmetry_multiplicity
  _atom_site_fract_x
  _atom_site_fract_y
  _atom_site_fract_z
  _atom_site_occupancy
  Au  Au1       1.0  0.12927  0.02780  0.34909  1.0000
  Au  Au2       1.0  0.62927  0.97220  0.15091  1.0000
  Au  Au3       1.0  0.87073  0.97220  0.65091  1.0000
  Au  Au4       1.0  0.37073  0.02780  0.84909  1.0000
  Au  Au5       1.0  0.85198  0.33178  0.65779  1.0000
  Au  Au6       1.0  0.35198  0.66822  0.84221  1.0000
  Au  Au7       1.0  0.14802  0.66822  0.34221  1.0000
  Au  Au8       1.0  0.64802  0.33178  0.15779  1.0000
  Sn  Sn1       1.0  0.12462  0.28388  0.95368  1.0000
  Sn  Sn2       1.0  0.62462  0.71612  0.54632  1.0000
  Sn  Sn3       1.0  0.87538  0.71612  0.04632  1.0000
  Sn  Sn4       1.0  0.37538  0.28388  0.45368  1.0000
