data_image0
_chemical_formula_structural       F6Sn2
_chemical_formula_sum              "F6 Sn2"
_cell_length_a       6.30477
_cell_length_b       6.30477
_cell_length_c       3.3722
_cell_angle_alpha    90
_cell_angle_beta     90
_cell_angle_gamma    120

_space_group_name_H-M_alt    "P 1"
_space_group_IT_number       1

loop_
  _space_group_symop_operation_xyz
  'x, y, z'

loop_
  _atom_site_type_symbol
  _atom_site_label
  _atom_site_symmetry_multiplicity
  _atom_site_fract_x
  _atom_site_fract_y
  _atom_site_fract_z
  _atom_site_occupancy
  F   F1        1.0  0.79840  0.20160  0.75000  1.0000
  F   F2        1.0  0.40319  0.20160  0.75000  1.0000
  F   F3        1.0  0.79840  0.59681  0.75000  1.0000
  F   F4        1.0  0.20160  0.79840  0.25000  1.0000
  F   F5        1.0  0.59681  0.79840  0.25000  1.0000
  F   F6        1.0  0.20160  0.40319  0.25000  1.0000
  Sn  Sn1       1.0  0.66667  0.33333  0.25000  1.0000
  Sn  Sn2       1.0  0.33333  0.66667  0.75000  1.0000
