data_image0
_chemical_formula_structural       Sn9Hg8
_chemical_formula_sum              "Sn9 Hg8"
_cell_length_a       9.37397
_cell_length_b       9.37397
_cell_length_c       9.37397
_cell_angle_alpha    60
_cell_angle_beta     60
_cell_angle_gamma    60

_space_group_name_H-M_alt    "P 1"
_space_group_IT_number       1

loop_
  _space_group_symop_operation_xyz
  'x, y, z'

loop_
  _atom_site_type_symbol
  _atom_site_label
  _atom_site_symmetry_multiplicity
  _atom_site_fract_x
  _atom_site_fract_y
  _atom_site_fract_z
  _atom_site_occupancy
  Sn  Sn1       1.0  0.50000  0.50000  0.50000  1.0000
  Sn  Sn2       1.0  0.88066  0.35803  0.88066  1.0000
  Sn  Sn3       1.0  0.11934  0.11934  0.64197  1.0000
  Sn  Sn4       1.0  0.64197  0.11934  0.11934  1.0000
  Sn  Sn5       1.0  0.11934  0.11934  0.11934  1.0000
  Sn  Sn6       1.0  0.35803  0.88066  0.88066  1.0000
  Sn  Sn7       1.0  0.88066  0.88066  0.88066  1.0000
  Sn  Sn8       1.0  0.88066  0.88066  0.35803  1.0000
  Sn  Sn9       1.0  0.11934  0.64197  0.11934  1.0000
  Hg  Hg1       1.0  0.75000  0.75000  0.75000  1.0000
  Hg  Hg2       1.0  0.25000  0.25000  0.25000  1.0000
  Hg  Hg3       1.0  0.28482  0.28482  0.71518  1.0000
  Hg  Hg4       1.0  0.28482  0.71518  0.71518  1.0000
  Hg  Hg5       1.0  0.71518  0.28482  0.28482  1.0000
  Hg  Hg6       1.0  0.28482  0.71518  0.28482  1.0000
  Hg  Hg7       1.0  0.71518  0.28482  0.71518  1.0000
  Hg  Hg8       1.0  0.71518  0.71518  0.28482  1.0000
