data_image0
_chemical_formula_structural       Sn2Hg3
_chemical_formula_sum              "Sn2 Hg3"
_cell_length_a       8.1391
_cell_length_b       8.1391
_cell_length_c       8.1391
_cell_angle_alpha    32.87
_cell_angle_beta     32.87
_cell_angle_gamma    32.87

_space_group_name_H-M_alt    "P 1"
_space_group_IT_number       1

loop_
  _space_group_symop_operation_xyz
  'x, y, z'

loop_
  _atom_site_type_symbol
  _atom_site_label
  _atom_site_symmetry_multiplicity
  _atom_site_fract_x
  _atom_site_fract_y
  _atom_site_fract_z
  _atom_site_occupancy
  Sn  Sn1       1.0  0.60633  0.60633  0.60633  1.0000
  Sn  Sn2       1.0  0.39367  0.39367  0.39367  1.0000
  Hg  Hg1       1.0  0.00000  0.00000  0.00000  1.0000
  Hg  Hg2       1.0  0.20101  0.20101  0.20101  1.0000
  Hg  Hg3       1.0  0.79899  0.79899  0.79899  1.0000
