data_image0
_chemical_formula_structural       Sn6Hg10
_chemical_formula_sum              "Sn6 Hg10"
_cell_length_a       4.37543
_cell_length_b       6.75025
_cell_length_c       14.4029
_cell_angle_alpha    90
_cell_angle_beta     90
_cell_angle_gamma    90

_space_group_name_H-M_alt    "P 1"
_space_group_IT_number       1

loop_
  _space_group_symop_operation_xyz
  'x, y, z'

loop_
  _atom_site_type_symbol
  _atom_site_label
  _atom_site_symmetry_multiplicity
  _atom_site_fract_x
  _atom_site_fract_y
  _atom_site_fract_z
  _atom_site_occupancy
  Sn  Sn1       1.0  0.50000  0.28954  0.87476  1.0000
  Sn  Sn2       1.0  0.50000  0.78954  0.62524  1.0000
  Sn  Sn3       1.0  0.00000  0.50000  0.50000  1.0000
  Sn  Sn4       1.0  0.00000  0.00000  0.00000  1.0000
  Sn  Sn5       1.0  0.50000  0.71046  0.12524  1.0000
  Sn  Sn6       1.0  0.50000  0.21046  0.37476  1.0000
  Hg  Hg1       1.0  0.50000  0.71485  0.37523  1.0000
  Hg  Hg2       1.0  0.50000  0.28515  0.62477  1.0000
  Hg  Hg3       1.0  0.00000  0.07025  0.75048  1.0000
  Hg  Hg4       1.0  0.50000  0.78515  0.87523  1.0000
  Hg  Hg5       1.0  0.00000  0.42975  0.25048  1.0000
  Hg  Hg6       1.0  0.00000  0.92975  0.24952  1.0000
  Hg  Hg7       1.0  0.00000  0.57025  0.74952  1.0000
  Hg  Hg8       1.0  0.00000  0.50000  0.00000  1.0000
  Hg  Hg9       1.0  0.00000  0.00000  0.50000  1.0000
  Hg  Hg10      1.0  0.50000  0.21485  0.12477  1.0000
