data_image0
_chemical_formula_structural       Sn2Hg4
_chemical_formula_sum              "Sn2 Hg4"
_cell_length_a       6.04503
_cell_length_b       6.04503
_cell_length_c       6.04503
_cell_angle_alpha    111.47
_cell_angle_beta     111.47
_cell_angle_gamma    105.543

_space_group_name_H-M_alt    "P 1"
_space_group_IT_number       1

loop_
  _space_group_symop_operation_xyz
  'x, y, z'

loop_
  _atom_site_type_symbol
  _atom_site_label
  _atom_site_symmetry_multiplicity
  _atom_site_fract_x
  _atom_site_fract_y
  _atom_site_fract_z
  _atom_site_occupancy
  Sn  Sn1       1.0  0.25000  0.25000  0.00000  1.0000
  Sn  Sn2       1.0  0.75000  0.75000  0.00000  1.0000
  Hg  Hg1       1.0  0.65637  0.15637  0.81274  1.0000
  Hg  Hg2       1.0  0.34363  0.84363  0.18726  1.0000
  Hg  Hg3       1.0  0.84363  0.65637  0.50000  1.0000
  Hg  Hg4       1.0  0.15637  0.34363  0.50000  1.0000
