data_image0
_chemical_formula_structural       Sn4Hg8
_chemical_formula_sum              "Sn4 Hg8"
_cell_length_a       9.47996
_cell_length_b       9.47996
_cell_length_c       12.1181
_cell_angle_alpha    47.2601
_cell_angle_beta     47.2601
_cell_angle_gamma    25.1961

_space_group_name_H-M_alt    "P 1"
_space_group_IT_number       1

loop_
  _space_group_symop_operation_xyz
  'x, y, z'

loop_
  _atom_site_type_symbol
  _atom_site_label
  _atom_site_symmetry_multiplicity
  _atom_site_fract_x
  _atom_site_fract_y
  _atom_site_fract_z
  _atom_site_occupancy
  Sn  Sn1       1.0  0.74158  0.74158  0.83218  1.0000
  Sn  Sn2       1.0  0.25842  0.25842  0.16782  1.0000
  Sn  Sn3       1.0  0.41807  0.41807  0.28506  1.0000
  Sn  Sn4       1.0  0.58193  0.58193  0.71494  1.0000
  Hg  Hg1       1.0  0.06683  0.06683  0.03736  1.0000
  Hg  Hg2       1.0  0.93317  0.93317  0.96264  1.0000
  Hg  Hg3       1.0  0.93474  0.93474  0.46826  1.0000
  Hg  Hg4       1.0  0.06526  0.06526  0.53174  1.0000
  Hg  Hg5       1.0  0.62147  0.62147  0.20473  1.0000
  Hg  Hg6       1.0  0.37853  0.37853  0.79527  1.0000
  Hg  Hg7       1.0  0.23387  0.23387  0.64592  1.0000
  Hg  Hg8       1.0  0.76613  0.76613  0.35408  1.0000
