data_image0
_chemical_formula_structural       Sn9Hg13
_chemical_formula_sum              "Sn9 Hg13"
_cell_length_a       8.43743
_cell_length_b       8.43743
_cell_length_c       11.3236
_cell_angle_alpha    60.0688
_cell_angle_beta     60.0688
_cell_angle_gamma    70.7216

_space_group_name_H-M_alt    "P 1"
_space_group_IT_number       1

loop_
  _space_group_symop_operation_xyz
  'x, y, z'

loop_
  _atom_site_type_symbol
  _atom_site_label
  _atom_site_symmetry_multiplicity
  _atom_site_fract_x
  _atom_site_fract_y
  _atom_site_fract_z
  _atom_site_occupancy
  Sn  Sn1       1.0  0.23937  0.23937  0.18169  1.0000
  Sn  Sn2       1.0  0.81480  0.14535  0.26457  1.0000
  Sn  Sn3       1.0  0.86005  0.86005  0.06215  1.0000
  Sn  Sn4       1.0  0.13995  0.13995  0.93785  1.0000
  Sn  Sn5       1.0  0.50000  0.50000  0.50000  1.0000
  Sn  Sn6       1.0  0.76063  0.76063  0.81831  1.0000
  Sn  Sn7       1.0  0.14535  0.81480  0.26457  1.0000
  Sn  Sn8       1.0  0.85465  0.18520  0.73543  1.0000
  Sn  Sn9       1.0  0.18520  0.85465  0.73543  1.0000
  Hg  Hg1       1.0  0.51003  0.08022  0.65012  1.0000
  Hg  Hg2       1.0  0.08022  0.51003  0.65012  1.0000
  Hg  Hg3       1.0  0.54940  0.54940  0.20044  1.0000
  Hg  Hg4       1.0  0.72882  0.72882  0.55191  1.0000
  Hg  Hg5       1.0  0.48997  0.91978  0.34988  1.0000
  Hg  Hg6       1.0  0.67875  0.32125  0.00000  1.0000
  Hg  Hg7       1.0  0.27118  0.27118  0.44809  1.0000
  Hg  Hg8       1.0  0.45060  0.45060  0.79956  1.0000
  Hg  Hg9       1.0  0.32125  0.67875  0.00000  1.0000
  Hg  Hg10      1.0  0.00000  0.00000  0.50000  1.0000
  Hg  Hg11      1.0  0.91978  0.48997  0.34988  1.0000
  Hg  Hg12      1.0  0.00000  0.50000  0.00000  1.0000
  Hg  Hg13      1.0  0.50000  0.00000  0.00000  1.0000
