data_image0
_chemical_formula_structural       Sn6Br6
_chemical_formula_sum              "Sn6 Br6"
_cell_length_a       5.96226
_cell_length_b       5.96226
_cell_length_c       23.1245
_cell_angle_alpha    90
_cell_angle_beta     90
_cell_angle_gamma    131.653

_space_group_name_H-M_alt    "P 1"
_space_group_IT_number       1

loop_
  _space_group_symop_operation_xyz
  'x, y, z'

loop_
  _atom_site_type_symbol
  _atom_site_label
  _atom_site_symmetry_multiplicity
  _atom_site_fract_x
  _atom_site_fract_y
  _atom_site_fract_z
  _atom_site_occupancy
  Sn  Sn1       1.0  0.41361  0.58639  0.13838  1.0000
  Sn  Sn2       1.0  0.58639  0.41361  0.86162  1.0000
  Sn  Sn3       1.0  0.58639  0.41361  0.63838  1.0000
  Sn  Sn4       1.0  0.41361  0.58639  0.36162  1.0000
  Sn  Sn5       1.0  0.44563  0.55437  0.75000  1.0000
  Sn  Sn6       1.0  0.55437  0.44563  0.25000  1.0000
  Br  Br1       1.0  0.81638  0.18362  0.75000  1.0000
  Br  Br2       1.0  0.18362  0.81638  0.25000  1.0000
  Br  Br3       1.0  0.97584  0.02416  0.59985  1.0000
  Br  Br4       1.0  0.02416  0.97584  0.09985  1.0000
  Br  Br5       1.0  0.97584  0.02416  0.90015  1.0000
  Br  Br6       1.0  0.02416  0.97584  0.40015  1.0000
