data_image0
_chemical_formula_structural       Sn3Hg4
_chemical_formula_sum              "Sn3 Hg4"
_cell_length_a       6.85798
_cell_length_b       6.85796
_cell_length_c       8.4076
_cell_angle_alpha    51.2379
_cell_angle_beta     51.2377
_cell_angle_gamma    44.564

_space_group_name_H-M_alt    "P 1"
_space_group_IT_number       1

loop_
  _space_group_symop_operation_xyz
  'x, y, z'

loop_
  _atom_site_type_symbol
  _atom_site_label
  _atom_site_symmetry_multiplicity
  _atom_site_fract_x
  _atom_site_fract_y
  _atom_site_fract_z
  _atom_site_occupancy
  Sn  Sn1       1.0  0.16984  0.16984  0.82739  1.0000
  Sn  Sn2       1.0  0.83016  0.83016  0.17261  1.0000
  Sn  Sn3       1.0  0.50000  0.50000  0.50000  1.0000
  Hg  Hg1       1.0  0.88931  0.88931  0.45213  1.0000
  Hg  Hg2       1.0  0.11069  0.11069  0.54787  1.0000
  Hg  Hg3       1.0  0.37351  0.37351  0.96726  1.0000
  Hg  Hg4       1.0  0.62649  0.62649  0.03274  1.0000
