data_image0
_chemical_formula_structural       Sn4Au12
_chemical_formula_sum              "Sn4 Au12"
_cell_length_a       7.75008
_cell_length_b       7.75008
_cell_length_c       7.82061
_cell_angle_alpha    90
_cell_angle_beta     90
_cell_angle_gamma    136.607

_space_group_name_H-M_alt    "P 1"
_space_group_IT_number       1

loop_
  _space_group_symop_operation_xyz
  'x, y, z'

loop_
  _atom_site_type_symbol
  _atom_site_label
  _atom_site_symmetry_multiplicity
  _atom_site_fract_x
  _atom_site_fract_y
  _atom_site_fract_z
  _atom_site_occupancy
  Sn  Sn1       1.0  0.63097  0.36903  0.00000  1.0000
  Sn  Sn2       1.0  0.36903  0.63097  0.00000  1.0000
  Sn  Sn3       1.0  0.13097  0.86903  0.50000  1.0000
  Sn  Sn4       1.0  0.86903  0.13097  0.50000  1.0000
  Au  Au1       1.0  0.75115  0.75115  0.25062  1.0000
  Au  Au2       1.0  0.25115  0.25115  0.24938  1.0000
  Au  Au3       1.0  0.74885  0.74885  0.75062  1.0000
  Au  Au4       1.0  0.38118  0.61882  0.50000  1.0000
  Au  Au5       1.0  0.00023  0.50023  0.75000  1.0000
  Au  Au6       1.0  0.88118  0.11882  0.00000  1.0000
  Au  Au7       1.0  0.99977  0.49977  0.25000  1.0000
  Au  Au8       1.0  0.24885  0.24885  0.74938  1.0000
  Au  Au9       1.0  0.61882  0.38118  0.50000  1.0000
  Au  Au10      1.0  0.11882  0.88118  0.00000  1.0000
  Au  Au11      1.0  0.49977  0.99977  0.25000  1.0000
  Au  Au12      1.0  0.50023  0.00023  0.75000  1.0000
