data_image0
_chemical_formula_structural       Sn4Hg4
_chemical_formula_sum              "Sn4 Hg4"
_cell_length_a       6.00175
_cell_length_b       6.00175
_cell_length_c       6.00175
_cell_angle_alpha    90
_cell_angle_beta     90
_cell_angle_gamma    90

_space_group_name_H-M_alt    "P 1"
_space_group_IT_number       1

loop_
  _space_group_symop_operation_xyz
  'x, y, z'

loop_
  _atom_site_type_symbol
  _atom_site_label
  _atom_site_symmetry_multiplicity
  _atom_site_fract_x
  _atom_site_fract_y
  _atom_site_fract_z
  _atom_site_occupancy
  Sn  Sn1       1.0  0.84562  0.65438  0.34562  1.0000
  Sn  Sn2       1.0  0.65438  0.34562  0.84562  1.0000
  Sn  Sn3       1.0  0.34562  0.84562  0.65438  1.0000
  Sn  Sn4       1.0  0.15438  0.15438  0.15438  1.0000
  Hg  Hg1       1.0  0.15669  0.34331  0.65669  1.0000
  Hg  Hg2       1.0  0.34331  0.65669  0.15669  1.0000
  Hg  Hg3       1.0  0.65669  0.15669  0.34331  1.0000
  Hg  Hg4       1.0  0.84331  0.84331  0.84331  1.0000
