data_image0
_chemical_formula_structural       Sn4Br8
_chemical_formula_sum              "Sn4 Br8"
_cell_length_a       7.40665
_cell_length_b       7.40665
_cell_length_c       7.40665
_cell_angle_alpha    90
_cell_angle_beta     90
_cell_angle_gamma    90

_space_group_name_H-M_alt    "P 1"
_space_group_IT_number       1

loop_
  _space_group_symop_operation_xyz
  'x, y, z'

loop_
  _atom_site_type_symbol
  _atom_site_label
  _atom_site_symmetry_multiplicity
  _atom_site_fract_x
  _atom_site_fract_y
  _atom_site_fract_z
  _atom_site_occupancy
  Sn  Sn1       1.0  0.00000  0.50000  0.50000  1.0000
  Sn  Sn2       1.0  0.50000  0.50000  0.00000  1.0000
  Sn  Sn3       1.0  0.50000  0.00000  0.50000  1.0000
  Sn  Sn4       1.0  0.00000  0.00000  0.00000  1.0000
  Br  Br1       1.0  0.34500  0.15500  0.84500  1.0000
  Br  Br2       1.0  0.15500  0.84500  0.34500  1.0000
  Br  Br3       1.0  0.84500  0.34500  0.15500  1.0000
  Br  Br4       1.0  0.65500  0.65500  0.65500  1.0000
  Br  Br5       1.0  0.34500  0.34500  0.34500  1.0000
  Br  Br6       1.0  0.15500  0.65500  0.84500  1.0000
  Br  Br7       1.0  0.84500  0.15500  0.65500  1.0000
  Br  Br8       1.0  0.65500  0.84500  0.15500  1.0000
