data_image0
_chemical_formula_structural       SnBr4
_chemical_formula_sum              "Sn1 Br4"
_cell_length_a       7.43384
_cell_length_b       7.43384
_cell_length_c       7.43384
_cell_angle_alpha    93.2271
_cell_angle_beta     93.2271
_cell_angle_gamma    152.55

_space_group_name_H-M_alt    "P 1"
_space_group_IT_number       1

loop_
  _space_group_symop_operation_xyz
  'x, y, z'

loop_
  _atom_site_type_symbol
  _atom_site_label
  _atom_site_symmetry_multiplicity
  _atom_site_fract_x
  _atom_site_fract_y
  _atom_site_fract_z
  _atom_site_occupancy
  Sn  Sn1       1.0  0.00000  0.00000  0.00000  1.0000
  Br  Br1       1.0  0.54854  0.72517  0.27371  1.0000
  Br  Br2       1.0  0.45146  0.27483  0.72629  1.0000
  Br  Br3       1.0  0.27483  0.54854  0.82337  1.0000
  Br  Br4       1.0  0.72517  0.45146  0.17663  1.0000
