data_image0
_chemical_formula_structural       Br10Sn6
_chemical_formula_sum              "Br10 Sn6"
_cell_length_a       9.74514
_cell_length_b       9.74514
_cell_length_c       9.74514
_cell_angle_alpha    132.741
_cell_angle_beta     132.741
_cell_angle_gamma    69.0615

_space_group_name_H-M_alt    "P 1"
_space_group_IT_number       1

loop_
  _space_group_symop_operation_xyz
  'x, y, z'

loop_
  _atom_site_type_symbol
  _atom_site_label
  _atom_site_symmetry_multiplicity
  _atom_site_fract_x
  _atom_site_fract_y
  _atom_site_fract_z
  _atom_site_occupancy
  Br  Br1       1.0  0.53630  0.66588  0.50000  1.0000
  Br  Br2       1.0  0.46370  0.33412  0.50000  1.0000
  Br  Br3       1.0  0.50000  0.50000  0.00000  1.0000
  Br  Br4       1.0  0.00000  0.00000  0.00000  1.0000
  Br  Br5       1.0  0.16588  0.03630  0.50000  1.0000
  Br  Br6       1.0  0.03630  0.53630  0.87042  1.0000
  Br  Br7       1.0  0.66588  0.16588  0.12958  1.0000
  Br  Br8       1.0  0.33412  0.83412  0.87042  1.0000
  Br  Br9       1.0  0.96370  0.46370  0.12958  1.0000
  Br  Br10      1.0  0.83412  0.96370  0.50000  1.0000
  Sn  Sn1       1.0  0.85084  0.64916  0.50000  1.0000
  Sn  Sn2       1.0  0.64916  0.14916  0.79833  1.0000
  Sn  Sn3       1.0  0.35084  0.85084  0.20167  1.0000
  Sn  Sn4       1.0  0.14916  0.35084  0.50000  1.0000
  Sn  Sn5       1.0  0.25000  0.25000  0.00000  1.0000
  Sn  Sn6       1.0  0.75000  0.75000  0.00000  1.0000
