data_image0
_chemical_formula_structural       Au8Sn4
_chemical_formula_sum              "Au8 Sn4"
_cell_length_a       8.89334
_cell_length_b       4.23652
_cell_length_c       8.38295
_cell_angle_alpha    59.1026
_cell_angle_beta     90
_cell_angle_gamma    90

_space_group_name_H-M_alt    "P 1"
_space_group_IT_number       1

loop_
  _space_group_symop_operation_xyz
  'x, y, z'

loop_
  _atom_site_type_symbol
  _atom_site_label
  _atom_site_symmetry_multiplicity
  _atom_site_fract_x
  _atom_site_fract_y
  _atom_site_fract_z
  _atom_site_occupancy
  Au  Au1       1.0  0.36566  0.49587  0.44974  1.0000
  Au  Au2       1.0  0.63434  0.49587  0.94974  1.0000
  Au  Au3       1.0  0.35321  0.68453  0.76072  1.0000
  Au  Au4       1.0  0.87043  0.19943  0.24432  1.0000
  Au  Au5       1.0  0.64679  0.68453  0.26072  1.0000
  Au  Au6       1.0  0.12957  0.19943  0.74432  1.0000
  Au  Au7       1.0  0.89193  0.77317  0.67188  1.0000
  Au  Au8       1.0  0.10807  0.77317  0.17188  1.0000
  Sn  Sn1       1.0  0.39416  0.92685  0.01526  1.0000
  Sn  Sn2       1.0  0.60584  0.92685  0.51526  1.0000
  Sn  Sn3       1.0  0.85701  0.00345  0.94138  1.0000
  Sn  Sn4       1.0  0.14299  0.00345  0.44138  1.0000
