data_image0
_chemical_formula_structural       Hg6Sn2
_chemical_formula_sum              "Hg6 Sn2"
_cell_length_a       5.72463
_cell_length_b       5.91022
_cell_length_c       6.30356
_cell_angle_alpha    90
_cell_angle_beta     90
_cell_angle_gamma    90

_space_group_name_H-M_alt    "P 1"
_space_group_IT_number       1

loop_
  _space_group_symop_operation_xyz
  'x, y, z'

loop_
  _atom_site_type_symbol
  _atom_site_label
  _atom_site_symmetry_multiplicity
  _atom_site_fract_x
  _atom_site_fract_y
  _atom_site_fract_z
  _atom_site_occupancy
  Hg  Hg1       1.0  0.00000  0.33458  0.24849  1.0000
  Hg  Hg2       1.0  0.00000  0.33458  0.75151  1.0000
  Hg  Hg3       1.0  0.50000  0.66542  0.25151  1.0000
  Hg  Hg4       1.0  0.50000  0.66542  0.74849  1.0000
  Hg  Hg5       1.0  0.00000  0.84833  0.50000  1.0000
  Hg  Hg6       1.0  0.50000  0.15167  0.00000  1.0000
  Sn  Sn1       1.0  0.00000  0.80936  0.00000  1.0000
  Sn  Sn2       1.0  0.50000  0.19064  0.50000  1.0000
