data_image0
_chemical_formula_structural       SnAu2
_chemical_formula_sum              "Sn1 Au2"
_cell_length_a       4.0557
_cell_length_b       4.0557
_cell_length_c       4.8267
_cell_angle_alpha    90.0242
_cell_angle_beta     90.0242
_cell_angle_gamma    59.9949

_space_group_name_H-M_alt    "P 1"
_space_group_IT_number       1

loop_
  _space_group_symop_operation_xyz
  'x, y, z'

loop_
  _atom_site_type_symbol
  _atom_site_label
  _atom_site_symmetry_multiplicity
  _atom_site_fract_x
  _atom_site_fract_y
  _atom_site_fract_z
  _atom_site_occupancy
  Sn  Sn1       1.0  0.66668  0.33332  0.50000  1.0000
  Au  Au1       1.0  0.33331  0.99999  0.83505  1.0000
  Au  Au2       1.0  0.00001  0.66669  0.16495  1.0000
