data_image0
_chemical_formula_structural       Sn10Hg6
_chemical_formula_sum              "Sn10 Hg6"
_cell_length_a       9.04558
_cell_length_b       9.04558
_cell_length_c       9.04558
_cell_angle_alpha    96.4682
_cell_angle_beta     96.4682
_cell_angle_gamma    140.778

_space_group_name_H-M_alt    "P 1"
_space_group_IT_number       1

loop_
  _space_group_symop_operation_xyz
  'x, y, z'

loop_
  _atom_site_type_symbol
  _atom_site_label
  _atom_site_symmetry_multiplicity
  _atom_site_fract_x
  _atom_site_fract_y
  _atom_site_fract_z
  _atom_site_occupancy
  Sn  Sn1       1.0  0.55737  0.26136  0.81872  1.0000
  Sn  Sn2       1.0  0.44263  0.73864  0.18128  1.0000
  Sn  Sn3       1.0  0.73864  0.55737  0.29601  1.0000
  Sn  Sn4       1.0  0.26136  0.44263  0.70399  1.0000
  Sn  Sn5       1.0  0.94263  0.76136  0.70399  1.0000
  Sn  Sn6       1.0  0.23864  0.94263  0.18128  1.0000
  Sn  Sn7       1.0  0.25000  0.75000  0.50000  1.0000
  Sn  Sn8       1.0  0.75000  0.25000  0.50000  1.0000
  Sn  Sn9       1.0  0.05737  0.23864  0.29601  1.0000
  Sn  Sn10      1.0  0.76136  0.05737  0.81872  1.0000
  Hg  Hg1       1.0  0.81043  0.31043  0.12087  1.0000
  Hg  Hg2       1.0  0.68957  0.81043  0.50000  1.0000
  Hg  Hg3       1.0  0.31043  0.18957  0.50000  1.0000
  Hg  Hg4       1.0  0.18957  0.68957  0.87913  1.0000
  Hg  Hg5       1.0  0.75000  0.75000  0.00000  1.0000
  Hg  Hg6       1.0  0.25000  0.25000  0.00000  1.0000
