data_image0
_chemical_formula_structural       Sn5Se13
_chemical_formula_sum              "Sn5 Se13"
_cell_length_a       14.2824
_cell_length_b       14.2824
_cell_length_c       6.4444
_cell_angle_alpha    67.8879
_cell_angle_beta     67.8879
_cell_angle_gamma    23.6972

_space_group_name_H-M_alt    "P 1"
_space_group_IT_number       1

loop_
  _space_group_symop_operation_xyz
  'x, y, z'

loop_
  _atom_site_type_symbol
  _atom_site_label
  _atom_site_symmetry_multiplicity
  _atom_site_fract_x
  _atom_site_fract_y
  _atom_site_fract_z
  _atom_site_occupancy
  Sn  Sn1       1.0  0.00000  0.00000  0.00000  1.0000
  Sn  Sn2       1.0  0.11078  0.11078  0.27171  1.0000
  Sn  Sn3       1.0  0.88922  0.88922  0.72829  1.0000
  Sn  Sn4       1.0  0.33067  0.33067  0.31212  1.0000
  Sn  Sn5       1.0  0.66933  0.66933  0.68788  1.0000
  Se  Se1       1.0  0.00000  0.00000  0.50000  1.0000
  Se  Se2       1.0  0.13203  0.13203  0.82356  1.0000
  Se  Se3       1.0  0.86797  0.86797  0.17644  1.0000
  Se  Se4       1.0  0.21651  0.21651  0.37333  1.0000
  Se  Se5       1.0  0.78349  0.78349  0.62667  1.0000
  Se  Se6       1.0  0.25224  0.25224  0.97231  1.0000
  Se  Se7       1.0  0.74776  0.74776  0.02769  1.0000
  Se  Se8       1.0  0.34889  0.34889  0.84300  1.0000
  Se  Se9       1.0  0.65111  0.65111  0.15700  1.0000
  Se  Se10      1.0  0.43844  0.43844  0.24796  1.0000
  Se  Se11      1.0  0.56156  0.56156  0.75204  1.0000
  Se  Se12      1.0  0.45290  0.45290  0.86371  1.0000
  Se  Se13      1.0  0.54710  0.54710  0.13629  1.0000
