data_image0
_chemical_formula_structural       Sn8I16
_chemical_formula_sum              "Sn8 I16"
_cell_length_a       7.97595
_cell_length_b       14.5926
_cell_length_c       17.3113
_cell_angle_alpha    90
_cell_angle_beta     90
_cell_angle_gamma    90

_space_group_name_H-M_alt    "P 1"
_space_group_IT_number       1

loop_
  _space_group_symop_operation_xyz
  'x, y, z'

loop_
  _atom_site_type_symbol
  _atom_site_label
  _atom_site_symmetry_multiplicity
  _atom_site_fract_x
  _atom_site_fract_y
  _atom_site_fract_z
  _atom_site_occupancy
  Sn  Sn1       1.0  0.82802  0.94546  0.15160  1.0000
  Sn  Sn2       1.0  0.67198  0.55454  0.65160  1.0000
  Sn  Sn3       1.0  0.67198  0.44546  0.84840  1.0000
  Sn  Sn4       1.0  0.82802  0.05454  0.34840  1.0000
  Sn  Sn5       1.0  0.17198  0.05454  0.84840  1.0000
  Sn  Sn6       1.0  0.32802  0.44546  0.34840  1.0000
  Sn  Sn7       1.0  0.32802  0.55454  0.15160  1.0000
  Sn  Sn8       1.0  0.17198  0.94546  0.65160  1.0000
  I   I1        1.0  0.62005  0.50000  0.25000  1.0000
  I   I2        1.0  0.87995  0.00000  0.75000  1.0000
  I   I3        1.0  0.37995  0.50000  0.75000  1.0000
  I   I4        1.0  0.12005  0.00000  0.25000  1.0000
  I   I5        1.0  0.66805  0.88041  0.32033  1.0000
  I   I6        1.0  0.83195  0.61959  0.82033  1.0000
  I   I7        1.0  0.83195  0.38041  0.67967  1.0000
  I   I8        1.0  0.66805  0.11959  0.17967  1.0000
  I   I9        1.0  0.33195  0.11959  0.67967  1.0000
  I   I10       1.0  0.16805  0.38041  0.17967  1.0000
  I   I11       1.0  0.16805  0.61959  0.32033  1.0000
  I   I12       1.0  0.33195  0.88041  0.82033  1.0000
  I   I13       1.0  0.50000  0.50000  0.00000  1.0000
  I   I14       1.0  0.00000  0.00000  0.50000  1.0000
  I   I15       1.0  0.00000  0.00000  0.00000  1.0000
  I   I16       1.0  0.50000  0.50000  0.50000  1.0000
