data_image0
_chemical_formula_structural       Sn2I4
_chemical_formula_sum              "Sn2 I4"
_cell_length_a       8.07514
_cell_length_b       8.07514
_cell_length_c       5.63932
_cell_angle_alpha    90
_cell_angle_beta     90
_cell_angle_gamma    138.422

_space_group_name_H-M_alt    "P 1"
_space_group_IT_number       1

loop_
  _space_group_symop_operation_xyz
  'x, y, z'

loop_
  _atom_site_type_symbol
  _atom_site_label
  _atom_site_symmetry_multiplicity
  _atom_site_fract_x
  _atom_site_fract_y
  _atom_site_fract_z
  _atom_site_occupancy
  Sn  Sn1       1.0  0.22980  0.22980  0.75000  1.0000
  Sn  Sn2       1.0  0.77020  0.77020  0.25000  1.0000
  I   I1        1.0  0.63689  0.88865  0.75000  1.0000
  I   I2        1.0  0.88865  0.63689  0.75000  1.0000
  I   I3        1.0  0.11135  0.36311  0.25000  1.0000
  I   I4        1.0  0.36311  0.11135  0.25000  1.0000
