data_image0
_chemical_formula_structural       Sn10I6
_chemical_formula_sum              "Sn10 I6"
_cell_length_a       9.81403
_cell_length_b       9.81403
_cell_length_c       9.81403
_cell_angle_alpha    96.5377
_cell_angle_beta     96.5377
_cell_angle_gamma    140.56

_space_group_name_H-M_alt    "P 1"
_space_group_IT_number       1

loop_
  _space_group_symop_operation_xyz
  'x, y, z'

loop_
  _atom_site_type_symbol
  _atom_site_label
  _atom_site_symmetry_multiplicity
  _atom_site_fract_x
  _atom_site_fract_y
  _atom_site_fract_z
  _atom_site_occupancy
  Sn  Sn1       1.0  0.53234  0.21633  0.74866  1.0000
  Sn  Sn2       1.0  0.46766  0.78367  0.25134  1.0000
  Sn  Sn3       1.0  0.78367  0.53234  0.31601  1.0000
  Sn  Sn4       1.0  0.21633  0.46766  0.68399  1.0000
  Sn  Sn5       1.0  0.96766  0.71633  0.68399  1.0000
  Sn  Sn6       1.0  0.28367  0.96766  0.25134  1.0000
  Sn  Sn7       1.0  0.25000  0.75000  0.50000  1.0000
  Sn  Sn8       1.0  0.75000  0.25000  0.50000  1.0000
  Sn  Sn9       1.0  0.03234  0.28367  0.31601  1.0000
  Sn  Sn10      1.0  0.71633  0.03234  0.74866  1.0000
  I   I1        1.0  0.79567  0.29567  0.09135  1.0000
  I   I2        1.0  0.70433  0.79567  0.50000  1.0000
  I   I3        1.0  0.29567  0.20433  0.50000  1.0000
  I   I4        1.0  0.20433  0.70433  0.90865  1.0000
  I   I5        1.0  0.75000  0.75000  0.00000  1.0000
  I   I6        1.0  0.25000  0.25000  0.00000  1.0000
