data_image0
_chemical_formula_structural       Sn3I4
_chemical_formula_sum              "Sn3 I4"
_cell_length_a       8.22271
_cell_length_b       8.22271
_cell_length_c       9.33122
_cell_angle_alpha    62.9226
_cell_angle_beta     62.9226
_cell_angle_gamma    34.0863

_space_group_name_H-M_alt    "P 1"
_space_group_IT_number       1

loop_
  _space_group_symop_operation_xyz
  'x, y, z'

loop_
  _atom_site_type_symbol
  _atom_site_label
  _atom_site_symmetry_multiplicity
  _atom_site_fract_x
  _atom_site_fract_y
  _atom_site_fract_z
  _atom_site_occupancy
  Sn  Sn1       1.0  0.28413  0.28413  0.75626  1.0000
  Sn  Sn2       1.0  0.71587  0.71587  0.24374  1.0000
  Sn  Sn3       1.0  0.50000  0.50000  0.50000  1.0000
  I   I1        1.0  0.88141  0.88141  0.43689  1.0000
  I   I2        1.0  0.11859  0.11859  0.56311  1.0000
  I   I3        1.0  0.35653  0.35653  0.00571  1.0000
  I   I4        1.0  0.64347  0.64347  0.99429  1.0000
