data_image0
_chemical_formula_structural       S9Sn13
_chemical_formula_sum              "S9 Sn13"
_cell_length_a       9.14294
_cell_length_b       9.14294
_cell_length_c       7.56686
_cell_angle_alpha    90
_cell_angle_beta     90
_cell_angle_gamma    120

_space_group_name_H-M_alt    "P 1"
_space_group_IT_number       1

loop_
  _space_group_symop_operation_xyz
  'x, y, z'

loop_
  _atom_site_type_symbol
  _atom_site_label
  _atom_site_symmetry_multiplicity
  _atom_site_fract_x
  _atom_site_fract_y
  _atom_site_fract_z
  _atom_site_occupancy
  S   S1        1.0  0.00000  0.00000  0.50000  1.0000
  S   S2        1.0  0.33333  0.66667  0.78570  1.0000
  S   S3        1.0  0.66667  0.33333  0.21430  1.0000
  S   S4        1.0  0.20449  0.79551  0.26050  1.0000
  S   S5        1.0  0.20449  0.40897  0.26050  1.0000
  S   S6        1.0  0.59103  0.79551  0.26050  1.0000
  S   S7        1.0  0.40897  0.20449  0.73950  1.0000
  S   S8        1.0  0.79551  0.59103  0.73950  1.0000
  S   S9        1.0  0.79551  0.20449  0.73950  1.0000
  Sn  Sn1       1.0  0.00000  0.00000  0.00000  1.0000
  Sn  Sn2       1.0  0.50000  0.00000  0.00000  1.0000
  Sn  Sn3       1.0  0.00000  0.50000  0.00000  1.0000
  Sn  Sn4       1.0  0.50000  0.50000  0.00000  1.0000
  Sn  Sn5       1.0  0.50000  0.00000  0.50000  1.0000
  Sn  Sn6       1.0  0.00000  0.50000  0.50000  1.0000
  Sn  Sn7       1.0  0.50000  0.50000  0.50000  1.0000
  Sn  Sn8       1.0  0.13664  0.86336  0.73363  1.0000
  Sn  Sn9       1.0  0.13664  0.27328  0.73363  1.0000
  Sn  Sn10      1.0  0.72672  0.86336  0.73363  1.0000
  Sn  Sn11      1.0  0.27328  0.13664  0.26637  1.0000
  Sn  Sn12      1.0  0.86336  0.72672  0.26637  1.0000
  Sn  Sn13      1.0  0.86336  0.13664  0.26637  1.0000
