data_image0
_chemical_formula_structural       Hg10Sn6
_chemical_formula_sum              "Hg10 Sn6"
_cell_length_a       8.56338
_cell_length_b       8.56338
_cell_length_c       8.56338
_cell_angle_alpha    122.36
_cell_angle_beta     122.36
_cell_angle_gamma    85.9589

_space_group_name_H-M_alt    "P 1"
_space_group_IT_number       1

loop_
  _space_group_symop_operation_xyz
  'x, y, z'

loop_
  _atom_site_type_symbol
  _atom_site_label
  _atom_site_symmetry_multiplicity
  _atom_site_fract_x
  _atom_site_fract_y
  _atom_site_fract_z
  _atom_site_occupancy
  Hg  Hg1       1.0  0.48530  0.68193  0.50000  1.0000
  Hg  Hg2       1.0  0.51470  0.31807  0.50000  1.0000
  Hg  Hg3       1.0  0.50000  0.50000  0.00000  1.0000
  Hg  Hg4       1.0  0.00000  0.00000  0.00000  1.0000
  Hg  Hg5       1.0  0.18193  0.98530  0.50000  1.0000
  Hg  Hg6       1.0  0.98530  0.48530  0.80337  1.0000
  Hg  Hg7       1.0  0.68193  0.18193  0.19663  1.0000
  Hg  Hg8       1.0  0.31807  0.81807  0.80337  1.0000
  Hg  Hg9       1.0  0.01470  0.51470  0.19663  1.0000
  Hg  Hg10      1.0  0.81807  0.01470  0.50000  1.0000
  Sn  Sn1       1.0  0.85358  0.64642  0.50000  1.0000
  Sn  Sn2       1.0  0.64642  0.14642  0.79283  1.0000
  Sn  Sn3       1.0  0.35358  0.85358  0.20717  1.0000
  Sn  Sn4       1.0  0.14642  0.35358  0.50000  1.0000
  Sn  Sn5       1.0  0.25000  0.25000  0.00000  1.0000
  Sn  Sn6       1.0  0.75000  0.75000  0.00000  1.0000
