data_image0
_chemical_formula_structural       SnSe2
_chemical_formula_sum              "Sn1 Se2"
_cell_length_a       5.91403
_cell_length_b       5.91403
_cell_length_c       5.91403
_cell_angle_alpha    144.442
_cell_angle_beta     144.42
_cell_angle_gamma    51.1835

_space_group_name_H-M_alt    "P 1"
_space_group_IT_number       1

loop_
  _space_group_symop_operation_xyz
  'x, y, z'

loop_
  _atom_site_type_symbol
  _atom_site_label
  _atom_site_symmetry_multiplicity
  _atom_site_fract_x
  _atom_site_fract_y
  _atom_site_fract_z
  _atom_site_occupancy
  Sn  Sn1       1.0  0.00000  0.00000  0.00000  1.0000
  Se  Se1       1.0  0.65363  0.65363  1.00000  1.0000
  Se  Se2       1.0  0.34637  0.34637  0.00000  1.0000
