data_image0
_chemical_formula_structural       Sn3I4
_chemical_formula_sum              "Sn3 I4"
_cell_length_a       8.2255
_cell_length_b       8.2255
_cell_length_c       9.36266
_cell_angle_alpha    62.7652
_cell_angle_beta     62.7652
_cell_angle_gamma    34.0044

_space_group_name_H-M_alt    "P 1"
_space_group_IT_number       1

loop_
  _space_group_symop_operation_xyz
  'x, y, z'

loop_
  _atom_site_type_symbol
  _atom_site_label
  _atom_site_symmetry_multiplicity
  _atom_site_fract_x
  _atom_site_fract_y
  _atom_site_fract_z
  _atom_site_occupancy
  Sn  Sn1       1.0  0.00000  0.00000  0.00000  1.0000
  Sn  Sn2       1.0  0.21557  0.21557  0.74362  1.0000
  Sn  Sn3       1.0  0.78443  0.78443  0.25638  1.0000
  I   I1        1.0  0.14318  0.14318  0.49526  1.0000
  I   I2        1.0  0.85682  0.85682  0.50474  1.0000
  I   I3        1.0  0.61880  0.61880  0.06218  1.0000
  I   I4        1.0  0.38120  0.38120  0.93782  1.0000
