data_image0
_chemical_formula_structural       Sn8I8
_chemical_formula_sum              "Sn8 I8"
_cell_length_a       8.24823
_cell_length_b       8.24823
_cell_length_c       10.2137
_cell_angle_alpha    90
_cell_angle_beta     90
_cell_angle_gamma    90

_space_group_name_H-M_alt    "P 1"
_space_group_IT_number       1

loop_
  _space_group_symop_operation_xyz
  'x, y, z'

loop_
  _atom_site_type_symbol
  _atom_site_label
  _atom_site_symmetry_multiplicity
  _atom_site_fract_x
  _atom_site_fract_y
  _atom_site_fract_z
  _atom_site_occupancy
  Sn  Sn1       1.0  0.33119  0.66283  0.00000  1.0000
  Sn  Sn2       1.0  0.33717  0.33119  0.50000  1.0000
  Sn  Sn3       1.0  0.66283  0.66881  0.50000  1.0000
  Sn  Sn4       1.0  0.66881  0.33717  0.00000  1.0000
  Sn  Sn5       1.0  0.50000  0.00000  0.50000  1.0000
  Sn  Sn6       1.0  0.00000  0.50000  0.00000  1.0000
  Sn  Sn7       1.0  0.00000  0.00000  0.75000  1.0000
  Sn  Sn8       1.0  0.00000  0.00000  0.25000  1.0000
  I   I1        1.0  0.22723  0.30331  0.79993  1.0000
  I   I2        1.0  0.69669  0.22723  0.29993  1.0000
  I   I3        1.0  0.30331  0.77277  0.29993  1.0000
  I   I4        1.0  0.77277  0.69669  0.79993  1.0000
  I   I5        1.0  0.77277  0.69669  0.20007  1.0000
  I   I6        1.0  0.30331  0.77277  0.70007  1.0000
  I   I7        1.0  0.69669  0.22723  0.70007  1.0000
  I   I8        1.0  0.22723  0.30331  0.20007  1.0000
