data_image0
_chemical_formula_structural       Sn2Hg6
_chemical_formula_sum              "Sn2 Hg6"
_cell_length_a       5.72793
_cell_length_b       5.88599
_cell_length_c       6.29368
_cell_angle_alpha    90
_cell_angle_beta     90
_cell_angle_gamma    90

_space_group_name_H-M_alt    "P 1"
_space_group_IT_number       1

loop_
  _space_group_symop_operation_xyz
  'x, y, z'

loop_
  _atom_site_type_symbol
  _atom_site_label
  _atom_site_symmetry_multiplicity
  _atom_site_fract_x
  _atom_site_fract_y
  _atom_site_fract_z
  _atom_site_occupancy
  Sn  Sn1       1.0  0.50000  0.66969  0.50000  1.0000
  Sn  Sn2       1.0  0.00000  0.33031  0.00000  1.0000
  Hg  Hg1       1.0  0.50000  0.14947  0.74830  1.0000
  Hg  Hg2       1.0  0.50000  0.14947  0.25170  1.0000
  Hg  Hg3       1.0  0.00000  0.85053  0.75170  1.0000
  Hg  Hg4       1.0  0.00000  0.85053  0.24830  1.0000
  Hg  Hg5       1.0  0.00000  0.36065  0.50000  1.0000
  Hg  Hg6       1.0  0.50000  0.63935  0.00000  1.0000
