data_image0
_chemical_formula_structural       Sn8S16
_chemical_formula_sum              "Sn8 S16"
_cell_length_a       6.31016
_cell_length_b       9.81807
_cell_length_c       9.788
_cell_angle_alpha    90
_cell_angle_beta     90
_cell_angle_gamma    90

_space_group_name_H-M_alt    "P 1"
_space_group_IT_number       1

loop_
  _space_group_symop_operation_xyz
  'x, y, z'

loop_
  _atom_site_type_symbol
  _atom_site_label
  _atom_site_symmetry_multiplicity
  _atom_site_fract_x
  _atom_site_fract_y
  _atom_site_fract_z
  _atom_site_occupancy
  Sn  Sn1       1.0  0.51835  0.85278  0.14157  1.0000
  Sn  Sn2       1.0  0.98165  0.64722  0.64157  1.0000
  Sn  Sn3       1.0  0.98165  0.35278  0.85843  1.0000
  Sn  Sn4       1.0  0.51835  0.14722  0.35843  1.0000
  Sn  Sn5       1.0  0.48165  0.14722  0.85843  1.0000
  Sn  Sn6       1.0  0.01835  0.35278  0.35843  1.0000
  Sn  Sn7       1.0  0.01835  0.64722  0.14157  1.0000
  Sn  Sn8       1.0  0.48165  0.85278  0.64157  1.0000
  S   S1        1.0  0.34096  0.50000  0.25000  1.0000
  S   S2        1.0  0.15904  0.00000  0.75000  1.0000
  S   S3        1.0  0.65904  0.50000  0.75000  1.0000
  S   S4        1.0  0.84096  0.00000  0.25000  1.0000
  S   S5        1.0  0.31081  0.91655  0.39857  1.0000
  S   S6        1.0  0.18919  0.58345  0.89857  1.0000
  S   S7        1.0  0.18919  0.41655  0.60143  1.0000
  S   S8        1.0  0.31081  0.08345  0.10143  1.0000
  S   S9        1.0  0.68919  0.08345  0.60143  1.0000
  S   S10       1.0  0.81081  0.41655  0.10143  1.0000
  S   S11       1.0  0.81081  0.58345  0.39857  1.0000
  S   S12       1.0  0.68919  0.91655  0.89857  1.0000
  S   S13       1.0  0.50000  0.50000  0.00000  1.0000
  S   S14       1.0  0.00000  0.00000  0.50000  1.0000
  S   S15       1.0  0.00000  0.00000  0.00000  1.0000
  S   S16       1.0  0.50000  0.50000  0.50000  1.0000
