data_image0
_chemical_formula_structural       Sn8Se16
_chemical_formula_sum              "Sn8 Se16"
_cell_length_a       6.81824
_cell_length_b       9.79924
_cell_length_c       10.4609
_cell_angle_alpha    90
_cell_angle_beta     90
_cell_angle_gamma    90

_space_group_name_H-M_alt    "P 1"
_space_group_IT_number       1

loop_
  _space_group_symop_operation_xyz
  'x, y, z'

loop_
  _atom_site_type_symbol
  _atom_site_label
  _atom_site_symmetry_multiplicity
  _atom_site_fract_x
  _atom_site_fract_y
  _atom_site_fract_z
  _atom_site_occupancy
  Sn  Sn1       1.0  0.51910  0.85322  0.13881  1.0000
  Sn  Sn2       1.0  0.98090  0.64678  0.63881  1.0000
  Sn  Sn3       1.0  0.98090  0.35322  0.86119  1.0000
  Sn  Sn4       1.0  0.51910  0.14678  0.36119  1.0000
  Sn  Sn5       1.0  0.48090  0.14678  0.86119  1.0000
  Sn  Sn6       1.0  0.01910  0.35322  0.36119  1.0000
  Sn  Sn7       1.0  0.01910  0.64678  0.13881  1.0000
  Sn  Sn8       1.0  0.48090  0.85322  0.63881  1.0000
  Se  Se1       1.0  0.34005  0.50000  0.25000  1.0000
  Se  Se2       1.0  0.15995  0.00000  0.75000  1.0000
  Se  Se3       1.0  0.65995  0.50000  0.75000  1.0000
  Se  Se4       1.0  0.84005  0.00000  0.25000  1.0000
  Se  Se5       1.0  0.31724  0.90157  0.39436  1.0000
  Se  Se6       1.0  0.18276  0.59843  0.89436  1.0000
  Se  Se7       1.0  0.18276  0.40157  0.60564  1.0000
  Se  Se8       1.0  0.31724  0.09843  0.10564  1.0000
  Se  Se9       1.0  0.68276  0.09843  0.60564  1.0000
  Se  Se10      1.0  0.81724  0.40157  0.10564  1.0000
  Se  Se11      1.0  0.81724  0.59843  0.39436  1.0000
  Se  Se12      1.0  0.68276  0.90157  0.89436  1.0000
  Se  Se13      1.0  0.50000  0.50000  0.00000  1.0000
  Se  Se14      1.0  0.00000  0.00000  0.50000  1.0000
  Se  Se15      1.0  0.00000  0.00000  0.00000  1.0000
  Se  Se16      1.0  0.50000  0.50000  0.50000  1.0000
