data_image0
_chemical_formula_structural       I9Sn13
_chemical_formula_sum              "I9 Sn13"
_cell_length_a       11.8653
_cell_length_b       11.8653
_cell_length_c       6.3566
_cell_angle_alpha    90
_cell_angle_beta     90
_cell_angle_gamma    120

_space_group_name_H-M_alt    "P 1"
_space_group_IT_number       1

loop_
  _space_group_symop_operation_xyz
  'x, y, z'

loop_
  _atom_site_type_symbol
  _atom_site_label
  _atom_site_symmetry_multiplicity
  _atom_site_fract_x
  _atom_site_fract_y
  _atom_site_fract_z
  _atom_site_occupancy
  I   I1        1.0  0.00000  0.00000  0.50000  1.0000
  I   I2        1.0  0.33333  0.66667  0.99847  1.0000
  I   I3        1.0  0.66667  0.33333  0.00153  1.0000
  I   I4        1.0  0.19613  0.80387  0.49999  1.0000
  I   I5        1.0  0.19613  0.39227  0.49999  1.0000
  I   I6        1.0  0.60773  0.80387  0.49999  1.0000
  I   I7        1.0  0.39227  0.19613  0.50001  1.0000
  I   I8        1.0  0.80387  0.60773  0.50001  1.0000
  I   I9        1.0  0.80387  0.19613  0.50001  1.0000
  Sn  Sn1       1.0  0.00000  0.00000  0.00000  1.0000
  Sn  Sn2       1.0  0.50000  0.00000  0.00000  1.0000
  Sn  Sn3       1.0  0.00000  0.50000  0.00000  1.0000
  Sn  Sn4       1.0  0.50000  0.50000  0.00000  1.0000
  Sn  Sn5       1.0  0.50000  0.00000  0.50000  1.0000
  Sn  Sn6       1.0  0.00000  0.50000  0.50000  1.0000
  Sn  Sn7       1.0  0.50000  0.50000  0.50000  1.0000
  Sn  Sn8       1.0  0.15853  0.84147  0.99702  1.0000
  Sn  Sn9       1.0  0.15853  0.31707  0.99702  1.0000
  Sn  Sn10      1.0  0.68293  0.84147  0.99702  1.0000
  Sn  Sn11      1.0  0.31707  0.15853  0.00298  1.0000
  Sn  Sn12      1.0  0.84147  0.68293  0.00298  1.0000
  Sn  Sn13      1.0  0.84147  0.15853  0.00298  1.0000
