data_image0
_chemical_formula_structural       I10Sn6
_chemical_formula_sum              "I10 Sn6"
_cell_length_a       9.91399
_cell_length_b       9.91399
_cell_length_c       9.91399
_cell_angle_alpha    128.595
_cell_angle_beta     128.595
_cell_angle_gamma    75.6626

_space_group_name_H-M_alt    "P 1"
_space_group_IT_number       1

loop_
  _space_group_symop_operation_xyz
  'x, y, z'

loop_
  _atom_site_type_symbol
  _atom_site_label
  _atom_site_symmetry_multiplicity
  _atom_site_fract_x
  _atom_site_fract_y
  _atom_site_fract_z
  _atom_site_occupancy
  I   I1        1.0  0.52286  0.68714  0.50000  1.0000
  I   I2        1.0  0.47714  0.31286  0.50000  1.0000
  I   I3        1.0  0.50000  0.50000  0.00000  1.0000
  I   I4        1.0  0.00000  0.00000  0.00000  1.0000
  I   I5        1.0  0.18714  0.02286  0.50000  1.0000
  I   I6        1.0  0.02286  0.52286  0.83573  1.0000
  I   I7        1.0  0.68714  0.18714  0.16427  1.0000
  I   I8        1.0  0.31286  0.81286  0.83573  1.0000
  I   I9        1.0  0.97714  0.47714  0.16427  1.0000
  I   I10       1.0  0.81286  0.97714  0.50000  1.0000
  Sn  Sn1       1.0  0.84374  0.65626  0.50000  1.0000
  Sn  Sn2       1.0  0.65626  0.15626  0.81253  1.0000
  Sn  Sn3       1.0  0.34374  0.84374  0.18747  1.0000
  Sn  Sn4       1.0  0.15626  0.34374  0.50000  1.0000
  Sn  Sn5       1.0  0.25000  0.25000  0.00000  1.0000
  Sn  Sn6       1.0  0.75000  0.75000  0.00000  1.0000
