data_image0
_chemical_formula_structural       Sn3Hg6
_chemical_formula_sum              "Sn3 Hg6"
_cell_length_a       5.72551
_cell_length_b       5.72551
_cell_length_c       8.38864
_cell_angle_alpha    90
_cell_angle_beta     90
_cell_angle_gamma    120

_space_group_name_H-M_alt    "P 1"
_space_group_IT_number       1

loop_
  _space_group_symop_operation_xyz
  'x, y, z'

loop_
  _atom_site_type_symbol
  _atom_site_label
  _atom_site_symmetry_multiplicity
  _atom_site_fract_x
  _atom_site_fract_y
  _atom_site_fract_z
  _atom_site_occupancy
  Sn  Sn1       1.0  0.00000  0.50000  0.16667  1.0000
  Sn  Sn2       1.0  0.50000  0.50000  0.83333  1.0000
  Sn  Sn3       1.0  0.50000  0.00000  0.50000  1.0000
  Hg  Hg1       1.0  0.83341  0.66681  0.50000  1.0000
  Hg  Hg2       1.0  0.16659  0.83341  0.83333  1.0000
  Hg  Hg3       1.0  0.66681  0.83341  0.16667  1.0000
  Hg  Hg4       1.0  0.16659  0.33319  0.50000  1.0000
  Hg  Hg5       1.0  0.83341  0.16659  0.83333  1.0000
  Hg  Hg6       1.0  0.33319  0.16659  0.16667  1.0000
