data_image0
_chemical_formula_structural       S10Sn6
_chemical_formula_sum              "S10 Sn6"
_cell_length_a       7.91239
_cell_length_b       7.91239
_cell_length_c       7.91239
_cell_angle_alpha    123.358
_cell_angle_beta     123.358
_cell_angle_gamma    84.2765

_space_group_name_H-M_alt    "P 1"
_space_group_IT_number       1

loop_
  _space_group_symop_operation_xyz
  'x, y, z'

loop_
  _atom_site_type_symbol
  _atom_site_label
  _atom_site_symmetry_multiplicity
  _atom_site_fract_x
  _atom_site_fract_y
  _atom_site_fract_z
  _atom_site_occupancy
  S   S1        1.0  0.50762  0.70004  0.50000  1.0000
  S   S2        1.0  0.49238  0.29996  0.50000  1.0000
  S   S3        1.0  0.50000  0.50000  0.00000  1.0000
  S   S4        1.0  0.00000  0.00000  0.00000  1.0000
  S   S5        1.0  0.20004  0.00762  0.50000  1.0000
  S   S6        1.0  0.00762  0.50762  0.80758  1.0000
  S   S7        1.0  0.70004  0.20004  0.19242  1.0000
  S   S8        1.0  0.29996  0.79996  0.80758  1.0000
  S   S9        1.0  0.99238  0.49238  0.19242  1.0000
  S   S10       1.0  0.79996  0.99238  0.50000  1.0000
  Sn  Sn1       1.0  0.83399  0.66601  0.50000  1.0000
  Sn  Sn2       1.0  0.66601  0.16601  0.83202  1.0000
  Sn  Sn3       1.0  0.33399  0.83399  0.16798  1.0000
  Sn  Sn4       1.0  0.16601  0.33399  0.50000  1.0000
  Sn  Sn5       1.0  0.25000  0.25000  0.00000  1.0000
  Sn  Sn6       1.0  0.75000  0.75000  0.00000  1.0000
