data_image0
_chemical_formula_structural       Se9Sn13
_chemical_formula_sum              "Se9 Sn13"
_cell_length_a       9.47626
_cell_length_b       9.47626
_cell_length_c       7.65899
_cell_angle_alpha    90
_cell_angle_beta     90
_cell_angle_gamma    120

_space_group_name_H-M_alt    "P 1"
_space_group_IT_number       1

loop_
  _space_group_symop_operation_xyz
  'x, y, z'

loop_
  _atom_site_type_symbol
  _atom_site_label
  _atom_site_symmetry_multiplicity
  _atom_site_fract_x
  _atom_site_fract_y
  _atom_site_fract_z
  _atom_site_occupancy
  Se  Se1       1.0  0.00000  0.00000  0.50000  1.0000
  Se  Se2       1.0  0.33333  0.66667  0.76705  1.0000
  Se  Se3       1.0  0.66667  0.33333  0.23295  1.0000
  Se  Se4       1.0  0.20587  0.79413  0.25648  1.0000
  Se  Se5       1.0  0.20587  0.41174  0.25648  1.0000
  Se  Se6       1.0  0.58826  0.79413  0.25648  1.0000
  Se  Se7       1.0  0.41174  0.20587  0.74352  1.0000
  Se  Se8       1.0  0.79413  0.58826  0.74352  1.0000
  Se  Se9       1.0  0.79413  0.20587  0.74352  1.0000
  Sn  Sn1       1.0  0.00000  0.00000  0.00000  1.0000
  Sn  Sn2       1.0  0.50000  0.00000  0.00000  1.0000
  Sn  Sn3       1.0  0.00000  0.50000  0.00000  1.0000
  Sn  Sn4       1.0  0.50000  0.50000  0.00000  1.0000
  Sn  Sn5       1.0  0.50000  0.00000  0.50000  1.0000
  Sn  Sn6       1.0  0.00000  0.50000  0.50000  1.0000
  Sn  Sn7       1.0  0.50000  0.50000  0.50000  1.0000
  Sn  Sn8       1.0  0.13611  0.86389  0.74214  1.0000
  Sn  Sn9       1.0  0.13611  0.27221  0.74214  1.0000
  Sn  Sn10      1.0  0.72779  0.86389  0.74214  1.0000
  Sn  Sn11      1.0  0.27221  0.13611  0.25786  1.0000
  Sn  Sn12      1.0  0.86389  0.72779  0.25786  1.0000
  Sn  Sn13      1.0  0.86389  0.13611  0.25786  1.0000
