data_image0
_chemical_formula_structural       Sn4S12
_chemical_formula_sum              "Sn4 S12"
_cell_length_a       8.88952
_cell_length_b       8.88952
_cell_length_c       6.72316
_cell_angle_alpha    90
_cell_angle_beta     90
_cell_angle_gamma    134.093

_space_group_name_H-M_alt    "P 1"
_space_group_IT_number       1

loop_
  _space_group_symop_operation_xyz
  'x, y, z'

loop_
  _atom_site_type_symbol
  _atom_site_label
  _atom_site_symmetry_multiplicity
  _atom_site_fract_x
  _atom_site_fract_y
  _atom_site_fract_z
  _atom_site_occupancy
  Sn  Sn1       1.0  0.67127  0.32873  0.00000  1.0000
  Sn  Sn2       1.0  0.32873  0.67127  0.00000  1.0000
  Sn  Sn3       1.0  0.17127  0.82873  0.50000  1.0000
  Sn  Sn4       1.0  0.82873  0.17127  0.50000  1.0000
  S   S1        1.0  0.49998  0.49998  0.27275  1.0000
  S   S2        1.0  0.99998  0.99998  0.22725  1.0000
  S   S3        1.0  0.00002  0.00002  0.77275  1.0000
  S   S4        1.0  0.40811  0.59189  0.50000  1.0000
  S   S5        1.0  0.00045  0.50045  0.75000  1.0000
  S   S6        1.0  0.90811  0.09189  0.00000  1.0000
  S   S7        1.0  0.99955  0.49955  0.25000  1.0000
  S   S8        1.0  0.50002  0.50002  0.72725  1.0000
  S   S9        1.0  0.59189  0.40811  0.50000  1.0000
  S   S10       1.0  0.09189  0.90811  0.00000  1.0000
  S   S11       1.0  0.49955  0.99955  0.25000  1.0000
  S   S12       1.0  0.50045  0.00045  0.75000  1.0000
