data_image0
_chemical_formula_structural       S6Sn2
_chemical_formula_sum              "S6 Sn2"
_cell_length_a       5.75775
_cell_length_b       5.75775
_cell_length_c       6.24184
_cell_angle_alpha    90
_cell_angle_beta     90
_cell_angle_gamma    120

_space_group_name_H-M_alt    "P 1"
_space_group_IT_number       1

loop_
  _space_group_symop_operation_xyz
  'x, y, z'

loop_
  _atom_site_type_symbol
  _atom_site_label
  _atom_site_symmetry_multiplicity
  _atom_site_fract_x
  _atom_site_fract_y
  _atom_site_fract_z
  _atom_site_occupancy
  S   S1        1.0  0.80316  0.19684  0.75000  1.0000
  S   S2        1.0  0.39369  0.19684  0.75000  1.0000
  S   S3        1.0  0.80316  0.60631  0.75000  1.0000
  S   S4        1.0  0.19684  0.80316  0.25000  1.0000
  S   S5        1.0  0.60631  0.80316  0.25000  1.0000
  S   S6        1.0  0.19684  0.39369  0.25000  1.0000
  Sn  Sn1       1.0  0.66667  0.33333  0.25000  1.0000
  Sn  Sn2       1.0  0.33333  0.66667  0.75000  1.0000
