data_image0
_chemical_formula_structural       Sn2Se4
_chemical_formula_sum              "Sn2 Se4"
_cell_length_a       6.03438
_cell_length_b       6.03438
_cell_length_c       4.78063
_cell_angle_alpha    90
_cell_angle_beta     90
_cell_angle_gamma    125.966

_space_group_name_H-M_alt    "P 1"
_space_group_IT_number       1

loop_
  _space_group_symop_operation_xyz
  'x, y, z'

loop_
  _atom_site_type_symbol
  _atom_site_label
  _atom_site_symmetry_multiplicity
  _atom_site_fract_x
  _atom_site_fract_y
  _atom_site_fract_z
  _atom_site_occupancy
  Sn  Sn1       1.0  0.25052  0.25052  0.75000  1.0000
  Sn  Sn2       1.0  0.74948  0.74948  0.25000  1.0000
  Se  Se1       1.0  0.59770  0.90733  0.75000  1.0000
  Se  Se2       1.0  0.90733  0.59770  0.75000  1.0000
  Se  Se3       1.0  0.09267  0.40230  0.25000  1.0000
  Se  Se4       1.0  0.40230  0.09267  0.25000  1.0000
