data_image0
_chemical_formula_structural       Sn2I4
_chemical_formula_sum              "Sn2 I4"
_cell_length_a       6.61665
_cell_length_b       6.61665
_cell_length_c       6.61665
_cell_angle_alpha    109.759
_cell_angle_beta     109.759
_cell_angle_gamma    108.897

_space_group_name_H-M_alt    "P 1"
_space_group_IT_number       1

loop_
  _space_group_symop_operation_xyz
  'x, y, z'

loop_
  _atom_site_type_symbol
  _atom_site_label
  _atom_site_symmetry_multiplicity
  _atom_site_fract_x
  _atom_site_fract_y
  _atom_site_fract_z
  _atom_site_occupancy
  Sn  Sn1       1.0  0.75000  0.75000  0.00000  1.0000
  Sn  Sn2       1.0  0.25000  0.25000  0.00000  1.0000
  I   I1        1.0  0.31647  0.18353  0.50000  1.0000
  I   I2        1.0  0.81647  0.31647  0.13293  1.0000
  I   I3        1.0  0.68353  0.81647  0.50000  1.0000
  I   I4        1.0  0.18353  0.68353  0.86707  1.0000
