data_image0
_chemical_formula_structural       Hg4Sn4
_chemical_formula_sum              "Hg4 Sn4"
_cell_length_a       6.01136
_cell_length_b       6.01136
_cell_length_c       6.01136
_cell_angle_alpha    90
_cell_angle_beta     90
_cell_angle_gamma    90

_space_group_name_H-M_alt    "P 1"
_space_group_IT_number       1

loop_
  _space_group_symop_operation_xyz
  'x, y, z'

loop_
  _atom_site_type_symbol
  _atom_site_label
  _atom_site_symmetry_multiplicity
  _atom_site_fract_x
  _atom_site_fract_y
  _atom_site_fract_z
  _atom_site_occupancy
  Hg  Hg1       1.0  0.84393  0.84393  0.84393  1.0000
  Hg  Hg2       1.0  0.65607  0.15607  0.34393  1.0000
  Hg  Hg3       1.0  0.34393  0.65607  0.15607  1.0000
  Hg  Hg4       1.0  0.15607  0.34393  0.65607  1.0000
  Sn  Sn1       1.0  0.14916  0.14916  0.14916  1.0000
  Sn  Sn2       1.0  0.35084  0.85084  0.64916  1.0000
  Sn  Sn3       1.0  0.64916  0.35084  0.85084  1.0000
  Sn  Sn4       1.0  0.85084  0.64916  0.35084  1.0000
