data_image0
_chemical_formula_structural       Sn2Hg4
_chemical_formula_sum              "Sn2 Hg4"
_cell_length_a       3.12647
_cell_length_b       7.14251
_cell_length_c       7.89158
_cell_angle_alpha    90
_cell_angle_beta     90
_cell_angle_gamma    90

_space_group_name_H-M_alt    "P 1"
_space_group_IT_number       1

loop_
  _space_group_symop_operation_xyz
  'x, y, z'

loop_
  _atom_site_type_symbol
  _atom_site_label
  _atom_site_symmetry_multiplicity
  _atom_site_fract_x
  _atom_site_fract_y
  _atom_site_fract_z
  _atom_site_occupancy
  Sn  Sn1       1.0  0.00000  0.00000  0.00000  1.0000
  Sn  Sn2       1.0  0.50000  0.50000  0.50000  1.0000
  Hg  Hg1       1.0  0.00000  0.14488  0.35558  1.0000
  Hg  Hg2       1.0  0.00000  0.85512  0.64442  1.0000
  Hg  Hg3       1.0  0.50000  0.64488  0.14442  1.0000
  Hg  Hg4       1.0  0.50000  0.35512  0.85558  1.0000
