data_image0
_chemical_formula_structural       Sn6I4
_chemical_formula_sum              "Sn6 I4"
_cell_length_a       7.45568
_cell_length_b       7.45568
_cell_length_c       6.34945
_cell_angle_alpha    90
_cell_angle_beta     90
_cell_angle_gamma    90

_space_group_name_H-M_alt    "P 1"
_space_group_IT_number       1

loop_
  _space_group_symop_operation_xyz
  'x, y, z'

loop_
  _atom_site_type_symbol
  _atom_site_label
  _atom_site_symmetry_multiplicity
  _atom_site_fract_x
  _atom_site_fract_y
  _atom_site_fract_z
  _atom_site_occupancy
  Sn  Sn1       1.0  0.00000  0.00000  0.00000  1.0000
  Sn  Sn2       1.0  0.50000  0.50000  0.00000  1.0000
  Sn  Sn3       1.0  0.14340  0.64340  0.83801  1.0000
  Sn  Sn4       1.0  0.35660  0.14340  0.16199  1.0000
  Sn  Sn5       1.0  0.64340  0.85660  0.16199  1.0000
  Sn  Sn6       1.0  0.85660  0.35660  0.83801  1.0000
  I   I1        1.0  0.19319  0.69319  0.38128  1.0000
  I   I2        1.0  0.30681  0.19319  0.61872  1.0000
  I   I3        1.0  0.69319  0.80681  0.61872  1.0000
  I   I4        1.0  0.80681  0.30681  0.38128  1.0000
