data_image0
_chemical_formula_structural       Sn2Tl6
_chemical_formula_sum              "Sn2 Tl6"
_cell_length_a       7.31916
_cell_length_b       7.31916
_cell_length_c       5.35059
_cell_angle_alpha    90
_cell_angle_beta     90
_cell_angle_gamma    120

_space_group_name_H-M_alt    "P 1"
_space_group_IT_number       1

loop_
  _space_group_symop_operation_xyz
  'x, y, z'

loop_
  _atom_site_type_symbol
  _atom_site_label
  _atom_site_symmetry_multiplicity
  _atom_site_fract_x
  _atom_site_fract_y
  _atom_site_fract_z
  _atom_site_occupancy
  Sn  Sn1       1.0  0.33333  0.66667  0.75000  1.0000
  Sn  Sn2       1.0  0.66667  0.33333  0.25000  1.0000
  Tl  Tl1       1.0  0.17004  0.34009  0.25000  1.0000
  Tl  Tl2       1.0  0.65991  0.82996  0.25000  1.0000
  Tl  Tl3       1.0  0.17004  0.82996  0.25000  1.0000
  Tl  Tl4       1.0  0.82996  0.65991  0.75000  1.0000
  Tl  Tl5       1.0  0.34009  0.17004  0.75000  1.0000
  Tl  Tl6       1.0  0.82996  0.17004  0.75000  1.0000
