data_image0
_chemical_formula_structural       Sn8Se12
_chemical_formula_sum              "Sn8 Se12"
_cell_length_a       3.96788
_cell_length_b       10.0598
_cell_length_c       15.5113
_cell_angle_alpha    90
_cell_angle_beta     90
_cell_angle_gamma    90

_space_group_name_H-M_alt    "P 1"
_space_group_IT_number       1

loop_
  _space_group_symop_operation_xyz
  'x, y, z'

loop_
  _atom_site_type_symbol
  _atom_site_label
  _atom_site_symmetry_multiplicity
  _atom_site_fract_x
  _atom_site_fract_y
  _atom_site_fract_z
  _atom_site_occupancy
  Sn  Sn1       1.0  0.25000  0.95407  0.85704  1.0000
  Sn  Sn2       1.0  0.75000  0.04593  0.14296  1.0000
  Sn  Sn3       1.0  0.75000  0.45407  0.64296  1.0000
  Sn  Sn4       1.0  0.25000  0.54593  0.35704  1.0000
  Sn  Sn5       1.0  0.25000  0.15367  0.54397  1.0000
  Sn  Sn6       1.0  0.75000  0.84633  0.45603  1.0000
  Sn  Sn7       1.0  0.75000  0.65367  0.95603  1.0000
  Sn  Sn8       1.0  0.25000  0.34633  0.04397  1.0000
  Se  Se1       1.0  0.25000  0.27785  0.69764  1.0000
  Se  Se2       1.0  0.75000  0.72215  0.30236  1.0000
  Se  Se3       1.0  0.75000  0.77785  0.80236  1.0000
  Se  Se4       1.0  0.25000  0.22215  0.19764  1.0000
  Se  Se5       1.0  0.25000  0.01466  0.39393  1.0000
  Se  Se6       1.0  0.75000  0.98534  0.60607  1.0000
  Se  Se7       1.0  0.75000  0.51466  0.10607  1.0000
  Se  Se8       1.0  0.25000  0.48534  0.89393  1.0000
  Se  Se9       1.0  0.25000  0.82329  0.01616  1.0000
  Se  Se10      1.0  0.75000  0.17671  0.98384  1.0000
  Se  Se11      1.0  0.75000  0.32329  0.48384  1.0000
  Se  Se12      1.0  0.25000  0.67671  0.51616  1.0000
