data_image0
_chemical_formula_structural       Sn4Tl8
_chemical_formula_sum              "Sn4 Tl8"
_cell_length_a       10.9621
_cell_length_b       10.9621
_cell_length_c       8.98101
_cell_angle_alpha    90
_cell_angle_beta     90
_cell_angle_gamma    159.764

_space_group_name_H-M_alt    "P 1"
_space_group_IT_number       1

loop_
  _space_group_symop_operation_xyz
  'x, y, z'

loop_
  _atom_site_type_symbol
  _atom_site_label
  _atom_site_symmetry_multiplicity
  _atom_site_fract_x
  _atom_site_fract_y
  _atom_site_fract_z
  _atom_site_occupancy
  Sn  Sn1       1.0  0.55559  0.44441  0.80062  1.0000
  Sn  Sn2       1.0  0.44441  0.55559  0.30062  1.0000
  Sn  Sn3       1.0  0.20436  0.79564  0.26491  1.0000
  Sn  Sn4       1.0  0.79564  0.20436  0.76491  1.0000
  Tl  Tl1       1.0  0.96260  0.03740  0.99806  1.0000
  Tl  Tl2       1.0  0.03740  0.96260  0.49806  1.0000
  Tl  Tl3       1.0  0.17661  0.82339  0.90038  1.0000
  Tl  Tl4       1.0  0.82339  0.17661  0.40038  1.0000
  Tl  Tl5       1.0  0.32666  0.67334  0.04976  1.0000
  Tl  Tl6       1.0  0.67334  0.32666  0.54976  1.0000
  Tl  Tl7       1.0  0.58873  0.41127  0.17196  1.0000
  Tl  Tl8       1.0  0.41127  0.58873  0.67196  1.0000
