data_image0
_chemical_formula_structural       Tl8Sn4
_chemical_formula_sum              "Tl8 Sn4"
_cell_length_a       3.53425
_cell_length_b       10.8307
_cell_length_c       10.9725
_cell_angle_alpha    59.6719
_cell_angle_beta     90
_cell_angle_gamma    90

_space_group_name_H-M_alt    "P 1"
_space_group_IT_number       1

loop_
  _space_group_symop_operation_xyz
  'x, y, z'

loop_
  _atom_site_type_symbol
  _atom_site_label
  _atom_site_symmetry_multiplicity
  _atom_site_fract_x
  _atom_site_fract_y
  _atom_site_fract_z
  _atom_site_occupancy
  Tl  Tl1       1.0  0.22144  0.06198  0.34292  1.0000
  Tl  Tl2       1.0  0.72144  0.93802  0.15708  1.0000
  Tl  Tl3       1.0  0.77856  0.93802  0.65708  1.0000
  Tl  Tl4       1.0  0.27856  0.06198  0.84292  1.0000
  Tl  Tl5       1.0  0.77056  0.39503  0.67574  1.0000
  Tl  Tl6       1.0  0.27056  0.60497  0.82426  1.0000
  Tl  Tl7       1.0  0.22944  0.60497  0.32426  1.0000
  Tl  Tl8       1.0  0.72944  0.39503  0.17574  1.0000
  Sn  Sn1       1.0  0.20835  0.25806  0.99392  1.0000
  Sn  Sn2       1.0  0.70835  0.74194  0.50608  1.0000
  Sn  Sn3       1.0  0.79165  0.74194  0.00608  1.0000
  Sn  Sn4       1.0  0.29165  0.25806  0.49392  1.0000
