data_image0
_chemical_formula_structural       Sn4Se8
_chemical_formula_sum              "Sn4 Se8"
_cell_length_a       8.55854
_cell_length_b       8.55854
_cell_length_c       13.7137
_cell_angle_alpha    46.4639
_cell_angle_beta     46.4639
_cell_angle_gamma    28.4479

_space_group_name_H-M_alt    "P 1"
_space_group_IT_number       1

loop_
  _space_group_symop_operation_xyz
  'x, y, z'

loop_
  _atom_site_type_symbol
  _atom_site_label
  _atom_site_symmetry_multiplicity
  _atom_site_fract_x
  _atom_site_fract_y
  _atom_site_fract_z
  _atom_site_occupancy
  Sn  Sn1       1.0  0.72503  0.72503  0.87914  1.0000
  Sn  Sn2       1.0  0.27497  0.27497  0.12086  1.0000
  Sn  Sn3       1.0  0.39201  0.39201  0.40493  1.0000
  Sn  Sn4       1.0  0.60799  0.60799  0.59507  1.0000
  Se  Se1       1.0  0.04397  0.04397  0.03983  1.0000
  Se  Se2       1.0  0.95603  0.95603  0.96017  1.0000
  Se  Se3       1.0  0.90730  0.90730  0.54460  1.0000
  Se  Se4       1.0  0.09270  0.09270  0.45540  1.0000
  Se  Se5       1.0  0.62798  0.62798  0.16257  1.0000
  Se  Se6       1.0  0.37202  0.37202  0.83743  1.0000
  Se  Se7       1.0  0.17211  0.17211  0.66948  1.0000
  Se  Se8       1.0  0.82789  0.82789  0.33052  1.0000
