data_image0
_chemical_formula_structural       Sn3Se4
_chemical_formula_sum              "Sn3 Se4"
_cell_length_a       8.01513
_cell_length_b       8.01513
_cell_length_c       7.1049
_cell_angle_alpha    65.2183
_cell_angle_beta     65.2183
_cell_angle_gamma    29.4026

_space_group_name_H-M_alt    "P 1"
_space_group_IT_number       1

loop_
  _space_group_symop_operation_xyz
  'x, y, z'

loop_
  _atom_site_type_symbol
  _atom_site_label
  _atom_site_symmetry_multiplicity
  _atom_site_fract_x
  _atom_site_fract_y
  _atom_site_fract_z
  _atom_site_occupancy
  Sn  Sn1       1.0  0.00000  0.00000  0.00000  1.0000
  Sn  Sn2       1.0  0.26547  0.26547  0.71797  1.0000
  Sn  Sn3       1.0  0.73453  0.73453  0.28203  1.0000
  Se  Se1       1.0  0.12353  0.12353  0.55002  1.0000
  Se  Se2       1.0  0.87647  0.87647  0.44998  1.0000
  Se  Se3       1.0  0.63160  0.63160  0.01852  1.0000
  Se  Se4       1.0  0.36840  0.36840  0.98148  1.0000
