data_image0
_chemical_formula_structural       Sn4Tl12
_chemical_formula_sum              "Sn4 Tl12"
_cell_length_a       9.8376
_cell_length_b       9.8376
_cell_length_c       7.31654
_cell_angle_alpha    90
_cell_angle_beta     90
_cell_angle_gamma    136.496

_space_group_name_H-M_alt    "P 1"
_space_group_IT_number       1

loop_
  _space_group_symop_operation_xyz
  'x, y, z'

loop_
  _atom_site_type_symbol
  _atom_site_label
  _atom_site_symmetry_multiplicity
  _atom_site_fract_x
  _atom_site_fract_y
  _atom_site_fract_z
  _atom_site_occupancy
  Sn  Sn1       1.0  0.63028  0.36972  0.00000  1.0000
  Sn  Sn2       1.0  0.36972  0.63028  0.00000  1.0000
  Sn  Sn3       1.0  0.13028  0.86972  0.50000  1.0000
  Sn  Sn4       1.0  0.86972  0.13028  0.50000  1.0000
  Tl  Tl1       1.0  0.74841  0.74841  0.24525  1.0000
  Tl  Tl2       1.0  0.24841  0.24841  0.25475  1.0000
  Tl  Tl3       1.0  0.75159  0.75159  0.74525  1.0000
  Tl  Tl4       1.0  0.37691  0.62309  0.50000  1.0000
  Tl  Tl5       1.0  0.99851  0.49851  0.75000  1.0000
  Tl  Tl6       1.0  0.87691  0.12309  0.00000  1.0000
  Tl  Tl7       1.0  0.00149  0.50149  0.25000  1.0000
  Tl  Tl8       1.0  0.25159  0.25159  0.75475  1.0000
  Tl  Tl9       1.0  0.62309  0.37691  0.50000  1.0000
  Tl  Tl10      1.0  0.12309  0.87691  0.00000  1.0000
  Tl  Tl11      1.0  0.50149  0.00149  0.25000  1.0000
  Tl  Tl12      1.0  0.49851  0.99851  0.75000  1.0000
