data_image0
_chemical_formula_structural       Tl10Sn6
_chemical_formula_sum              "Tl10 Sn6"
_cell_length_a       9.36625
_cell_length_b       9.36625
_cell_length_c       9.36625
_cell_angle_alpha    127.806
_cell_angle_beta     127.806
_cell_angle_gamma    76.9403

_space_group_name_H-M_alt    "P 1"
_space_group_IT_number       1

loop_
  _space_group_symop_operation_xyz
  'x, y, z'

loop_
  _atom_site_type_symbol
  _atom_site_label
  _atom_site_symmetry_multiplicity
  _atom_site_fract_x
  _atom_site_fract_y
  _atom_site_fract_z
  _atom_site_occupancy
  Tl  Tl1       1.0  0.49957  0.68102  0.50000  1.0000
  Tl  Tl2       1.0  0.50043  0.31898  0.50000  1.0000
  Tl  Tl3       1.0  0.50000  0.50000  0.00000  1.0000
  Tl  Tl4       1.0  0.00000  0.00000  0.00000  1.0000
  Tl  Tl5       1.0  0.18102  0.99957  0.50000  1.0000
  Tl  Tl6       1.0  0.99957  0.49957  0.81855  1.0000
  Tl  Tl7       1.0  0.68102  0.18102  0.18145  1.0000
  Tl  Tl8       1.0  0.31898  0.81898  0.81855  1.0000
  Tl  Tl9       1.0  0.00043  0.50043  0.18145  1.0000
  Tl  Tl10      1.0  0.81898  0.00043  0.50000  1.0000
  Sn  Sn1       1.0  0.86916  0.63084  0.50000  1.0000
  Sn  Sn2       1.0  0.63084  0.13084  0.76169  1.0000
  Sn  Sn3       1.0  0.36916  0.86916  0.23831  1.0000
  Sn  Sn4       1.0  0.13084  0.36916  0.50000  1.0000
  Sn  Sn5       1.0  0.25000  0.25000  0.00000  1.0000
  Sn  Sn6       1.0  0.75000  0.75000  0.00000  1.0000
