data_image0
_chemical_formula_structural       Sn8Tl16
_chemical_formula_sum              "Sn8 Tl16"
_cell_length_a       5.45219
_cell_length_b       9.8865
_cell_length_c       13.5395
_cell_angle_alpha    90
_cell_angle_beta     90
_cell_angle_gamma    90

_space_group_name_H-M_alt    "P 1"
_space_group_IT_number       1

loop_
  _space_group_symop_operation_xyz
  'x, y, z'

loop_
  _atom_site_type_symbol
  _atom_site_label
  _atom_site_symmetry_multiplicity
  _atom_site_fract_x
  _atom_site_fract_y
  _atom_site_fract_z
  _atom_site_occupancy
  Sn  Sn1       1.0  0.48637  0.82353  0.12167  1.0000
  Sn  Sn2       1.0  0.01363  0.67647  0.62167  1.0000
  Sn  Sn3       1.0  0.01363  0.32353  0.87833  1.0000
  Sn  Sn4       1.0  0.48637  0.17647  0.37833  1.0000
  Sn  Sn5       1.0  0.51363  0.17647  0.87833  1.0000
  Sn  Sn6       1.0  0.98637  0.32353  0.37833  1.0000
  Sn  Sn7       1.0  0.98637  0.67647  0.12167  1.0000
  Sn  Sn8       1.0  0.51363  0.82353  0.62167  1.0000
  Tl  Tl1       1.0  0.49096  0.50000  0.25000  1.0000
  Tl  Tl2       1.0  0.00904  0.00000  0.75000  1.0000
  Tl  Tl3       1.0  0.50904  0.50000  0.75000  1.0000
  Tl  Tl4       1.0  0.99096  0.00000  0.25000  1.0000
  Tl  Tl5       1.0  0.49707  0.84551  0.37165  1.0000
  Tl  Tl6       1.0  0.00293  0.65449  0.87165  1.0000
  Tl  Tl7       1.0  0.00293  0.34551  0.62835  1.0000
  Tl  Tl8       1.0  0.49707  0.15449  0.12835  1.0000
  Tl  Tl9       1.0  0.50293  0.15449  0.62835  1.0000
  Tl  Tl10      1.0  0.99707  0.34551  0.12835  1.0000
  Tl  Tl11      1.0  0.99707  0.65449  0.37165  1.0000
  Tl  Tl12      1.0  0.50293  0.84551  0.87165  1.0000
  Tl  Tl13      1.0  0.50000  0.50000  0.00000  1.0000
  Tl  Tl14      1.0  0.00000  0.00000  0.50000  1.0000
  Tl  Tl15      1.0  0.00000  0.00000  0.00000  1.0000
  Tl  Tl16      1.0  0.50000  0.50000  0.50000  1.0000
