data_image0
_chemical_formula_structural       Sn2Se6
_chemical_formula_sum              "Sn2 Se6"
_cell_length_a       6.16021
_cell_length_b       6.16021
_cell_length_c       5.81059
_cell_angle_alpha    90
_cell_angle_beta     90
_cell_angle_gamma    120

_space_group_name_H-M_alt    "P 1"
_space_group_IT_number       1

loop_
  _space_group_symop_operation_xyz
  'x, y, z'

loop_
  _atom_site_type_symbol
  _atom_site_label
  _atom_site_symmetry_multiplicity
  _atom_site_fract_x
  _atom_site_fract_y
  _atom_site_fract_z
  _atom_site_occupancy
  Sn  Sn1       1.0  0.33333  0.66667  0.75000  1.0000
  Sn  Sn2       1.0  0.66667  0.33333  0.25000  1.0000
  Se  Se1       1.0  0.17756  0.35512  0.25000  1.0000
  Se  Se2       1.0  0.64488  0.82244  0.25000  1.0000
  Se  Se3       1.0  0.17756  0.82244  0.25000  1.0000
  Se  Se4       1.0  0.82244  0.64488  0.75000  1.0000
  Se  Se5       1.0  0.35512  0.17756  0.75000  1.0000
  Se  Se6       1.0  0.82244  0.17756  0.75000  1.0000
