data_image0
_chemical_formula_structural       Sn6Se10
_chemical_formula_sum              "Sn6 Se10"
_cell_length_a       5.73391
_cell_length_b       5.78787
_cell_length_c       12.7606
_cell_angle_alpha    90
_cell_angle_beta     90
_cell_angle_gamma    90

_space_group_name_H-M_alt    "P 1"
_space_group_IT_number       1

loop_
  _space_group_symop_operation_xyz
  'x, y, z'

loop_
  _atom_site_type_symbol
  _atom_site_label
  _atom_site_symmetry_multiplicity
  _atom_site_fract_x
  _atom_site_fract_y
  _atom_site_fract_z
  _atom_site_occupancy
  Sn  Sn1       1.0  0.50000  0.48060  0.84308  1.0000
  Sn  Sn2       1.0  0.50000  0.98060  0.65692  1.0000
  Sn  Sn3       1.0  0.00000  0.50000  0.50000  1.0000
  Sn  Sn4       1.0  0.00000  0.00000  0.00000  1.0000
  Sn  Sn5       1.0  0.50000  0.51940  0.15692  1.0000
  Sn  Sn6       1.0  0.50000  0.01940  0.34308  1.0000
  Se  Se1       1.0  0.50000  0.51740  0.37659  1.0000
  Se  Se2       1.0  0.50000  0.48260  0.62341  1.0000
  Se  Se3       1.0  0.00000  0.97433  0.71374  1.0000
  Se  Se4       1.0  0.50000  0.98260  0.87659  1.0000
  Se  Se5       1.0  0.00000  0.52567  0.21374  1.0000
  Se  Se6       1.0  0.00000  0.02567  0.28626  1.0000
  Se  Se7       1.0  0.00000  0.47433  0.78626  1.0000
  Se  Se8       1.0  0.00000  0.50000  0.00000  1.0000
  Se  Se9       1.0  0.00000  0.00000  0.50000  1.0000
  Se  Se10      1.0  0.50000  0.01740  0.12341  1.0000
