data_image0
_chemical_formula_structural       Sn6Se20
_chemical_formula_sum              "Sn6 Se20"
_cell_length_a       15.7361
_cell_length_b       15.7361
_cell_length_c       3.60148
_cell_angle_alpha    90
_cell_angle_beta     90
_cell_angle_gamma    120

_space_group_name_H-M_alt    "P 1"
_space_group_IT_number       1

loop_
  _space_group_symop_operation_xyz
  'x, y, z'

loop_
  _atom_site_type_symbol
  _atom_site_label
  _atom_site_symmetry_multiplicity
  _atom_site_fract_x
  _atom_site_fract_y
  _atom_site_fract_z
  _atom_site_occupancy
  Sn  Sn1       1.0  0.61088  0.73088  0.25000  1.0000
  Sn  Sn2       1.0  0.26912  0.88000  0.25000  1.0000
  Sn  Sn3       1.0  0.12000  0.38912  0.25000  1.0000
  Sn  Sn4       1.0  0.38912  0.26912  0.75000  1.0000
  Sn  Sn5       1.0  0.73088  0.12000  0.75000  1.0000
  Sn  Sn6       1.0  0.88000  0.61088  0.75000  1.0000
  Se  Se1       1.0  0.82433  0.07823  0.25000  1.0000
  Se  Se2       1.0  0.92177  0.74610  0.25000  1.0000
  Se  Se3       1.0  0.25390  0.17567  0.25000  1.0000
  Se  Se4       1.0  0.17567  0.92177  0.75000  1.0000
  Se  Se5       1.0  0.07823  0.25390  0.75000  1.0000
  Se  Se6       1.0  0.74610  0.82433  0.75000  1.0000
  Se  Se7       1.0  0.55765  0.99637  0.25000  1.0000
  Se  Se8       1.0  0.00363  0.56128  0.25000  1.0000
  Se  Se9       1.0  0.43872  0.44235  0.25000  1.0000
  Se  Se10      1.0  0.44235  0.00363  0.75000  1.0000
  Se  Se11      1.0  0.99637  0.43872  0.75000  1.0000
  Se  Se12      1.0  0.56128  0.55765  0.75000  1.0000
  Se  Se13      1.0  0.75997  0.27403  0.25000  1.0000
  Se  Se14      1.0  0.72597  0.48594  0.25000  1.0000
  Se  Se15      1.0  0.51406  0.24003  0.25000  1.0000
  Se  Se16      1.0  0.24003  0.72597  0.75000  1.0000
  Se  Se17      1.0  0.27403  0.51406  0.75000  1.0000
  Se  Se18      1.0  0.48594  0.75997  0.75000  1.0000
  Se  Se19      1.0  0.66667  0.33333  0.75000  1.0000
  Se  Se20      1.0  0.33333  0.66667  0.25000  1.0000
