data_image0
_chemical_formula_structural       Tl9Sn13
_chemical_formula_sum              "Tl9 Sn13"
_cell_length_a       10.603
_cell_length_b       10.603
_cell_length_c       6.82728
_cell_angle_alpha    90
_cell_angle_beta     90
_cell_angle_gamma    120

_space_group_name_H-M_alt    "P 1"
_space_group_IT_number       1

loop_
  _space_group_symop_operation_xyz
  'x, y, z'

loop_
  _atom_site_type_symbol
  _atom_site_label
  _atom_site_symmetry_multiplicity
  _atom_site_fract_x
  _atom_site_fract_y
  _atom_site_fract_z
  _atom_site_occupancy
  Tl  Tl1       1.0  0.00000  0.00000  0.50000  1.0000
  Tl  Tl2       1.0  0.33333  0.66667  0.73842  1.0000
  Tl  Tl3       1.0  0.66667  0.33333  0.26158  1.0000
  Tl  Tl4       1.0  0.20027  0.79973  0.27469  1.0000
  Tl  Tl5       1.0  0.20027  0.40054  0.27469  1.0000
  Tl  Tl6       1.0  0.59946  0.79973  0.27469  1.0000
  Tl  Tl7       1.0  0.40054  0.20027  0.72531  1.0000
  Tl  Tl8       1.0  0.79973  0.59946  0.72531  1.0000
  Tl  Tl9       1.0  0.79973  0.20027  0.72531  1.0000
  Sn  Sn1       1.0  0.00000  0.00000  0.00000  1.0000
  Sn  Sn2       1.0  0.50000  0.00000  0.00000  1.0000
  Sn  Sn3       1.0  0.00000  0.50000  0.00000  1.0000
  Sn  Sn4       1.0  0.50000  0.50000  0.00000  1.0000
  Sn  Sn5       1.0  0.50000  0.00000  0.50000  1.0000
  Sn  Sn6       1.0  0.00000  0.50000  0.50000  1.0000
  Sn  Sn7       1.0  0.50000  0.50000  0.50000  1.0000
  Sn  Sn8       1.0  0.15825  0.84175  0.78762  1.0000
  Sn  Sn9       1.0  0.15825  0.31650  0.78762  1.0000
  Sn  Sn10      1.0  0.68350  0.84175  0.78762  1.0000
  Sn  Sn11      1.0  0.31650  0.15825  0.21238  1.0000
  Sn  Sn12      1.0  0.84175  0.68350  0.21238  1.0000
  Sn  Sn13      1.0  0.84175  0.15825  0.21238  1.0000
