data_image0
_chemical_formula_structural       Sn3Se4
_chemical_formula_sum              "Sn3 Se4"
_cell_length_a       8.00738
_cell_length_b       8.00738
_cell_length_c       7.11625
_cell_angle_alpha    65.0212
_cell_angle_beta     65.0212
_cell_angle_gamma    29.3911

_space_group_name_H-M_alt    "P 1"
_space_group_IT_number       1

loop_
  _space_group_symop_operation_xyz
  'x, y, z'

loop_
  _atom_site_type_symbol
  _atom_site_label
  _atom_site_symmetry_multiplicity
  _atom_site_fract_x
  _atom_site_fract_y
  _atom_site_fract_z
  _atom_site_occupancy
  Sn  Sn1       1.0  0.23423  0.23423  0.78256  1.0000
  Sn  Sn2       1.0  0.76577  0.76577  0.21744  1.0000
  Sn  Sn3       1.0  0.50000  0.50000  0.50000  1.0000
  Se  Se1       1.0  0.86839  0.86839  0.48191  1.0000
  Se  Se2       1.0  0.13161  0.13161  0.51809  1.0000
  Se  Se3       1.0  0.37655  0.37655  0.94951  1.0000
  Se  Se4       1.0  0.62345  0.62345  0.05049  1.0000
