data_image0
_chemical_formula_structural       Sn10Se6
_chemical_formula_sum              "Sn10 Se6"
_cell_length_a       8.66549
_cell_length_b       8.66549
_cell_length_c       8.66549
_cell_angle_alpha    99.6328
_cell_angle_beta     99.6328
_cell_angle_gamma    131.708

_space_group_name_H-M_alt    "P 1"
_space_group_IT_number       1

loop_
  _space_group_symop_operation_xyz
  'x, y, z'

loop_
  _atom_site_type_symbol
  _atom_site_label
  _atom_site_symmetry_multiplicity
  _atom_site_fract_x
  _atom_site_fract_y
  _atom_site_fract_z
  _atom_site_occupancy
  Sn  Sn1       1.0  0.52484  0.25495  0.77979  1.0000
  Sn  Sn2       1.0  0.47516  0.74505  0.22021  1.0000
  Sn  Sn3       1.0  0.74505  0.52484  0.26989  1.0000
  Sn  Sn4       1.0  0.25495  0.47516  0.73011  1.0000
  Sn  Sn5       1.0  0.97516  0.75495  0.73011  1.0000
  Sn  Sn6       1.0  0.24505  0.97516  0.22021  1.0000
  Sn  Sn7       1.0  0.25000  0.75000  0.50000  1.0000
  Sn  Sn8       1.0  0.75000  0.25000  0.50000  1.0000
  Sn  Sn9       1.0  0.02484  0.24505  0.26989  1.0000
  Sn  Sn10      1.0  0.75495  0.02484  0.77979  1.0000
  Se  Se1       1.0  0.78109  0.28109  0.06218  1.0000
  Se  Se2       1.0  0.71891  0.78109  0.50000  1.0000
  Se  Se3       1.0  0.28109  0.21891  0.50000  1.0000
  Se  Se4       1.0  0.21891  0.71891  0.93782  1.0000
  Se  Se5       1.0  0.75000  0.75000  0.00000  1.0000
  Se  Se6       1.0  0.25000  0.25000  0.00000  1.0000
