data_image0
_chemical_formula_structural       Sn4Se12
_chemical_formula_sum              "Sn4 Se12"
_cell_length_a       16.31
_cell_length_b       16.31
_cell_length_c       5.51901
_cell_angle_alpha    90
_cell_angle_beta     90
_cell_angle_gamma    161.645

_space_group_name_H-M_alt    "P 1"
_space_group_IT_number       1

loop_
  _space_group_symop_operation_xyz
  'x, y, z'

loop_
  _atom_site_type_symbol
  _atom_site_label
  _atom_site_symmetry_multiplicity
  _atom_site_fract_x
  _atom_site_fract_y
  _atom_site_fract_z
  _atom_site_occupancy
  Sn  Sn1       1.0  0.65824  0.34176  0.00000  1.0000
  Sn  Sn2       1.0  0.34176  0.65824  0.00000  1.0000
  Sn  Sn3       1.0  0.15824  0.84176  0.50000  1.0000
  Sn  Sn4       1.0  0.84176  0.15824  0.50000  1.0000
  Se  Se1       1.0  0.75174  0.75174  0.25029  1.0000
  Se  Se2       1.0  0.25174  0.25174  0.24971  1.0000
  Se  Se3       1.0  0.74826  0.74826  0.75029  1.0000
  Se  Se4       1.0  0.37650  0.62350  0.50000  1.0000
  Se  Se5       1.0  0.99941  0.49941  0.75000  1.0000
  Se  Se6       1.0  0.87650  0.12350  0.00000  1.0000
  Se  Se7       1.0  0.00059  0.50059  0.25000  1.0000
  Se  Se8       1.0  0.24826  0.24826  0.74971  1.0000
  Se  Se9       1.0  0.62350  0.37650  0.50000  1.0000
  Se  Se10      1.0  0.12350  0.87650  0.00000  1.0000
  Se  Se11      1.0  0.50059  0.00059  0.25000  1.0000
  Se  Se12      1.0  0.49941  0.99941  0.75000  1.0000
