data_image0
_chemical_formula_structural       Tl4Sn4
_chemical_formula_sum              "Tl4 Sn4"
_cell_length_a       6.20875
_cell_length_b       6.20875
_cell_length_c       6.20875
_cell_angle_alpha    90
_cell_angle_beta     90
_cell_angle_gamma    90

_space_group_name_H-M_alt    "P 1"
_space_group_IT_number       1

loop_
  _space_group_symop_operation_xyz
  'x, y, z'

loop_
  _atom_site_type_symbol
  _atom_site_label
  _atom_site_symmetry_multiplicity
  _atom_site_fract_x
  _atom_site_fract_y
  _atom_site_fract_z
  _atom_site_occupancy
  Tl  Tl1       1.0  0.84731  0.84731  0.84731  1.0000
  Tl  Tl2       1.0  0.65269  0.15269  0.34731  1.0000
  Tl  Tl3       1.0  0.34731  0.65269  0.15269  1.0000
  Tl  Tl4       1.0  0.15269  0.34731  0.65269  1.0000
  Sn  Sn1       1.0  0.14862  0.14862  0.14862  1.0000
  Sn  Sn2       1.0  0.35138  0.85138  0.64862  1.0000
  Sn  Sn3       1.0  0.64862  0.35138  0.85138  1.0000
  Sn  Sn4       1.0  0.85138  0.64862  0.35138  1.0000
