data_image0
_chemical_formula_structural       Sn6Tl16
_chemical_formula_sum              "Sn6 Tl16"
_cell_length_a       7.86827
_cell_length_b       7.29527
_cell_length_c       15.6271
_cell_angle_alpha    53.5282
_cell_angle_beta     90
_cell_angle_gamma    90

_space_group_name_H-M_alt    "P 1"
_space_group_IT_number       1

loop_
  _space_group_symop_operation_xyz
  'x, y, z'

loop_
  _atom_site_type_symbol
  _atom_site_label
  _atom_site_symmetry_multiplicity
  _atom_site_fract_x
  _atom_site_fract_y
  _atom_site_fract_z
  _atom_site_occupancy
  Sn  Sn1       1.0  0.45934  0.85990  0.70353  1.0000
  Sn  Sn2       1.0  0.54066  0.14010  0.29647  1.0000
  Sn  Sn3       1.0  0.50000  0.00000  0.00000  1.0000
  Sn  Sn4       1.0  0.95934  0.14010  0.79647  1.0000
  Sn  Sn5       1.0  0.04066  0.85990  0.20353  1.0000
  Sn  Sn6       1.0  0.00000  0.00000  0.50000  1.0000
  Tl  Tl1       1.0  0.69055  0.65207  0.20865  1.0000
  Tl  Tl2       1.0  0.61990  0.31633  0.65420  1.0000
  Tl  Tl3       1.0  0.65920  0.72552  0.91764  1.0000
  Tl  Tl4       1.0  0.64493  0.21279  0.47374  1.0000
  Tl  Tl5       1.0  0.85507  0.21279  0.97374  1.0000
  Tl  Tl6       1.0  0.88010  0.31633  0.15420  1.0000
  Tl  Tl7       1.0  0.84080  0.72552  0.41764  1.0000
  Tl  Tl8       1.0  0.80945  0.65207  0.70865  1.0000
  Tl  Tl9       1.0  0.11990  0.68367  0.84580  1.0000
  Tl  Tl10      1.0  0.14493  0.78721  0.02626  1.0000
  Tl  Tl11      1.0  0.15920  0.27448  0.58236  1.0000
  Tl  Tl12      1.0  0.19055  0.34793  0.29135  1.0000
  Tl  Tl13      1.0  0.34080  0.27448  0.08236  1.0000
  Tl  Tl14      1.0  0.30945  0.34793  0.79135  1.0000
  Tl  Tl15      1.0  0.38010  0.68367  0.34580  1.0000
  Tl  Tl16      1.0  0.35507  0.78721  0.52626  1.0000
