data_image0
_chemical_formula_structural       Tl4Sn2
_chemical_formula_sum              "Tl4 Sn2"
_cell_length_a       6.35732
_cell_length_b       6.35732
_cell_length_c       6.35732
_cell_angle_alpha    104.016
_cell_angle_beta     104.016
_cell_angle_gamma    121.039

_space_group_name_H-M_alt    "P 1"
_space_group_IT_number       1

loop_
  _space_group_symop_operation_xyz
  'x, y, z'

loop_
  _atom_site_type_symbol
  _atom_site_label
  _atom_site_symmetry_multiplicity
  _atom_site_fract_x
  _atom_site_fract_y
  _atom_site_fract_z
  _atom_site_occupancy
  Tl  Tl1       1.0  0.34889  0.84889  0.19779  1.0000
  Tl  Tl2       1.0  0.15111  0.34889  0.50000  1.0000
  Tl  Tl3       1.0  0.84889  0.65111  0.50000  1.0000
  Tl  Tl4       1.0  0.65111  0.15111  0.80221  1.0000
  Sn  Sn1       1.0  0.75000  0.75000  0.00000  1.0000
  Sn  Sn2       1.0  0.25000  0.25000  0.00000  1.0000
