data_image0
_chemical_formula_structural       Sn6Tl4
_chemical_formula_sum              "Sn6 Tl4"
_cell_length_a       6.42
_cell_length_b       6.42
_cell_length_c       7.88136
_cell_angle_alpha    90
_cell_angle_beta     90
_cell_angle_gamma    90

_space_group_name_H-M_alt    "P 1"
_space_group_IT_number       1

loop_
  _space_group_symop_operation_xyz
  'x, y, z'

loop_
  _atom_site_type_symbol
  _atom_site_label
  _atom_site_symmetry_multiplicity
  _atom_site_fract_x
  _atom_site_fract_y
  _atom_site_fract_z
  _atom_site_occupancy
  Sn  Sn1       1.0  0.00000  0.00000  0.00000  1.0000
  Sn  Sn2       1.0  0.50000  0.50000  0.00000  1.0000
  Sn  Sn3       1.0  0.16826  0.66826  0.77554  1.0000
  Sn  Sn4       1.0  0.33174  0.16826  0.22446  1.0000
  Sn  Sn5       1.0  0.66826  0.83174  0.22446  1.0000
  Sn  Sn6       1.0  0.83174  0.33174  0.77554  1.0000
  Tl  Tl1       1.0  0.18458  0.68458  0.35736  1.0000
  Tl  Tl2       1.0  0.31542  0.18458  0.64264  1.0000
  Tl  Tl3       1.0  0.68458  0.81542  0.64264  1.0000
  Tl  Tl4       1.0  0.81542  0.31542  0.35736  1.0000
