data_image0
_chemical_formula_structural       Sn4Se8
_chemical_formula_sum              "Sn4 Se8"
_cell_length_a       10.3012
_cell_length_b       10.3012
_cell_length_c       8.44709
_cell_angle_alpha    90
_cell_angle_beta     90
_cell_angle_gamma    157.763

_space_group_name_H-M_alt    "P 1"
_space_group_IT_number       1

loop_
  _space_group_symop_operation_xyz
  'x, y, z'

loop_
  _atom_site_type_symbol
  _atom_site_label
  _atom_site_symmetry_multiplicity
  _atom_site_fract_x
  _atom_site_fract_y
  _atom_site_fract_z
  _atom_site_occupancy
  Sn  Sn1       1.0  0.52023  0.47977  0.72681  1.0000
  Sn  Sn2       1.0  0.47977  0.52023  0.22681  1.0000
  Sn  Sn3       1.0  0.15339  0.84661  0.35878  1.0000
  Sn  Sn4       1.0  0.84661  0.15339  0.85878  1.0000
  Se  Se1       1.0  0.97494  0.02506  0.98299  1.0000
  Se  Se2       1.0  0.02506  0.97494  0.48299  1.0000
  Se  Se3       1.0  0.17105  0.82895  0.80855  1.0000
  Se  Se4       1.0  0.82895  0.17105  0.30855  1.0000
  Se  Se5       1.0  0.29272  0.70728  0.15485  1.0000
  Se  Se6       1.0  0.70728  0.29272  0.65485  1.0000
  Se  Se7       1.0  0.61527  0.38473  0.15371  1.0000
  Se  Se8       1.0  0.38473  0.61527  0.65371  1.0000
