data_image0
_chemical_formula_structural       Tl6Sn2
_chemical_formula_sum              "Tl6 Sn2"
_cell_length_a       5.42445
_cell_length_b       5.65519
_cell_length_c       7.96435
_cell_angle_alpha    90
_cell_angle_beta     90
_cell_angle_gamma    90

_space_group_name_H-M_alt    "P 1"
_space_group_IT_number       1

loop_
  _space_group_symop_operation_xyz
  'x, y, z'

loop_
  _atom_site_type_symbol
  _atom_site_label
  _atom_site_symmetry_multiplicity
  _atom_site_fract_x
  _atom_site_fract_y
  _atom_site_fract_z
  _atom_site_occupancy
  Tl  Tl1       1.0  0.00000  0.28938  0.24848  1.0000
  Tl  Tl2       1.0  0.00000  0.28938  0.75152  1.0000
  Tl  Tl3       1.0  0.50000  0.71062  0.25152  1.0000
  Tl  Tl4       1.0  0.50000  0.71062  0.74848  1.0000
  Tl  Tl5       1.0  0.00000  0.80323  0.50000  1.0000
  Tl  Tl6       1.0  0.50000  0.19677  0.00000  1.0000
  Sn  Sn1       1.0  0.00000  0.77822  0.00000  1.0000
  Sn  Sn2       1.0  0.50000  0.22178  0.50000  1.0000
