data_image0
_chemical_formula_structural       Se4Sn2
_chemical_formula_sum              "Se4 Sn2"
_cell_length_a       5.93912
_cell_length_b       5.93912
_cell_length_c       5.93912
_cell_angle_alpha    114.155
_cell_angle_beta     114.155
_cell_angle_gamma    100.463

_space_group_name_H-M_alt    "P 1"
_space_group_IT_number       1

loop_
  _space_group_symop_operation_xyz
  'x, y, z'

loop_
  _atom_site_type_symbol
  _atom_site_label
  _atom_site_symmetry_multiplicity
  _atom_site_fract_x
  _atom_site_fract_y
  _atom_site_fract_z
  _atom_site_occupancy
  Se  Se1       1.0  0.36768  0.86768  0.23537  1.0000
  Se  Se2       1.0  0.13232  0.36768  0.50000  1.0000
  Se  Se3       1.0  0.86768  0.63232  0.50000  1.0000
  Se  Se4       1.0  0.63232  0.13232  0.76463  1.0000
  Sn  Sn1       1.0  0.75000  0.75000  0.00000  1.0000
  Sn  Sn2       1.0  0.25000  0.25000  0.00000  1.0000
