data_image0
_chemical_formula_structural       Se10Sn6
_chemical_formula_sum              "Se10 Sn6"
_cell_length_a       8.53103
_cell_length_b       8.53103
_cell_length_c       8.53103
_cell_angle_alpha    120.885
_cell_angle_beta     120.885
_cell_angle_gamma    88.4735

_space_group_name_H-M_alt    "P 1"
_space_group_IT_number       1

loop_
  _space_group_symop_operation_xyz
  'x, y, z'

loop_
  _atom_site_type_symbol
  _atom_site_label
  _atom_site_symmetry_multiplicity
  _atom_site_fract_x
  _atom_site_fract_y
  _atom_site_fract_z
  _atom_site_occupancy
  Se  Se1       1.0  0.50672  0.64389  0.50000  1.0000
  Se  Se2       1.0  0.49328  0.35611  0.50000  1.0000
  Se  Se3       1.0  0.50000  0.50000  0.00000  1.0000
  Se  Se4       1.0  0.00000  0.00000  0.00000  1.0000
  Se  Se5       1.0  0.14389  0.00672  0.50000  1.0000
  Se  Se6       1.0  0.00672  0.50672  0.86284  1.0000
  Se  Se7       1.0  0.64389  0.14389  0.13716  1.0000
  Se  Se8       1.0  0.35611  0.85611  0.86284  1.0000
  Se  Se9       1.0  0.99328  0.49328  0.13716  1.0000
  Se  Se10      1.0  0.85611  0.99328  0.50000  1.0000
  Sn  Sn1       1.0  0.82986  0.67014  0.50000  1.0000
  Sn  Sn2       1.0  0.67014  0.17014  0.84027  1.0000
  Sn  Sn3       1.0  0.32986  0.82986  0.15973  1.0000
  Sn  Sn4       1.0  0.17014  0.32986  0.50000  1.0000
  Sn  Sn5       1.0  0.25000  0.25000  0.00000  1.0000
  Sn  Sn6       1.0  0.75000  0.75000  0.00000  1.0000
