data_image0
_chemical_formula_structural       Au3Te3
_chemical_formula_sum              "Au3 Te3"
_cell_length_a       4.12748
_cell_length_b       4.12748
_cell_length_c       10.1111
_cell_angle_alpha    90
_cell_angle_beta     90
_cell_angle_gamma    120

_space_group_name_H-M_alt    "P 1"
_space_group_IT_number       1

loop_
  _space_group_symop_operation_xyz
  'x, y, z'

loop_
  _atom_site_type_symbol
  _atom_site_label
  _atom_site_symmetry_multiplicity
  _atom_site_fract_x
  _atom_site_fract_y
  _atom_site_fract_z
  _atom_site_occupancy
  Au  Au1       1.0  0.32877  0.32877  0.00000  1.0000
  Au  Au2       1.0  0.00000  0.67123  0.66667  1.0000
  Au  Au3       1.0  0.67123  0.00000  0.33333  1.0000
  Te  Te1       1.0  0.37739  0.37739  0.50000  1.0000
  Te  Te2       1.0  1.00000  0.62261  0.16667  1.0000
  Te  Te3       1.0  0.62261  1.00000  0.83333  1.0000
