data_image0
_chemical_formula_structural       Ag4Te4
_chemical_formula_sum              "Ag4 Te4"
_cell_length_a       5.85567
_cell_length_b       5.85567
_cell_length_c       5.85567
_cell_angle_alpha    90
_cell_angle_beta     90
_cell_angle_gamma    90

_space_group_name_H-M_alt    "P 1"
_space_group_IT_number       1

loop_
  _space_group_symop_operation_xyz
  'x, y, z'

loop_
  _atom_site_type_symbol
  _atom_site_label
  _atom_site_symmetry_multiplicity
  _atom_site_fract_x
  _atom_site_fract_y
  _atom_site_fract_z
  _atom_site_occupancy
  Ag  Ag1       1.0  0.75156  0.74844  0.25156  1.0000
  Ag  Ag2       1.0  0.74844  0.25156  0.75156  1.0000
  Ag  Ag3       1.0  0.25156  0.75156  0.74844  1.0000
  Ag  Ag4       1.0  0.24844  0.24844  0.24844  1.0000
  Te  Te1       1.0  0.24919  0.25081  0.74919  1.0000
  Te  Te2       1.0  0.25081  0.74919  0.24919  1.0000
  Te  Te3       1.0  0.74919  0.24919  0.25081  1.0000
  Te  Te4       1.0  0.75081  0.75081  0.75081  1.0000
