data_image0
_chemical_formula_structural       Te4Au6
_chemical_formula_sum              "Te4 Au6"
_cell_length_a       7.51468
_cell_length_b       7.51468
_cell_length_c       7.51468
_cell_angle_alpha    133.116
_cell_angle_beta     126.883
_cell_angle_gamma    73.5208

_space_group_name_H-M_alt    "P 1"
_space_group_IT_number       1

loop_
  _space_group_symop_operation_xyz
  'x, y, z'

loop_
  _atom_site_type_symbol
  _atom_site_label
  _atom_site_symmetry_multiplicity
  _atom_site_fract_x
  _atom_site_fract_y
  _atom_site_fract_z
  _atom_site_occupancy
  Te  Te1       1.0  0.57049  0.36003  0.21047  1.0000
  Te  Te2       1.0  0.42951  0.63997  0.78953  1.0000
  Te  Te3       1.0  0.85044  0.13997  0.71047  1.0000
  Te  Te4       1.0  0.14956  0.86003  0.28953  1.0000
  Au  Au1       1.0  0.57619  0.86986  0.70633  1.0000
  Au  Au2       1.0  0.42381  0.13014  0.29367  1.0000
  Au  Au3       1.0  0.16353  0.36986  0.79367  1.0000
  Au  Au4       1.0  0.83647  0.63014  0.20633  1.0000
  Au  Au5       1.0  0.00000  0.75000  0.75000  1.0000
  Au  Au6       1.0  0.00000  0.25000  0.25000  1.0000
