data_image0
_chemical_formula_structural       Te7Au20
_chemical_formula_sum              "Te7 Au20"
_cell_length_a       8.59464
_cell_length_b       8.59464
_cell_length_c       8.59464
_cell_angle_alpha    98.5977
_cell_angle_beta     98.5977
_cell_angle_gamma    98.5977

_space_group_name_H-M_alt    "P 1"
_space_group_IT_number       1

loop_
  _space_group_symop_operation_xyz
  'x, y, z'

loop_
  _atom_site_type_symbol
  _atom_site_label
  _atom_site_symmetry_multiplicity
  _atom_site_fract_x
  _atom_site_fract_y
  _atom_site_fract_z
  _atom_site_occupancy
  Te  Te1       1.0  0.00000  0.00000  0.00000  1.0000
  Te  Te2       1.0  0.55652  0.00675  0.79124  1.0000
  Te  Te3       1.0  0.00675  0.79124  0.55652  1.0000
  Te  Te4       1.0  0.79124  0.55652  0.00675  1.0000
  Te  Te5       1.0  0.44348  0.99325  0.20876  1.0000
  Te  Te6       1.0  0.99325  0.20876  0.44348  1.0000
  Te  Te7       1.0  0.20876  0.44348  0.99325  1.0000
  Au  Au1       1.0  0.38737  0.38737  0.38737  1.0000
  Au  Au2       1.0  0.61263  0.61263  0.61263  1.0000
  Au  Au3       1.0  0.04568  0.43050  0.25626  1.0000
  Au  Au4       1.0  0.43050  0.25626  0.04568  1.0000
  Au  Au5       1.0  0.25626  0.04568  0.43050  1.0000
  Au  Au6       1.0  0.95432  0.56950  0.74374  1.0000
  Au  Au7       1.0  0.56950  0.74374  0.95432  1.0000
  Au  Au8       1.0  0.74374  0.95432  0.56950  1.0000
  Au  Au9       1.0  0.77169  0.22547  0.02739  1.0000
  Au  Au10      1.0  0.22547  0.02739  0.77169  1.0000
  Au  Au11      1.0  0.02739  0.77169  0.22547  1.0000
  Au  Au12      1.0  0.22831  0.77453  0.97261  1.0000
  Au  Au13      1.0  0.77453  0.97261  0.22831  1.0000
  Au  Au14      1.0  0.97261  0.22831  0.77453  1.0000
  Au  Au15      1.0  0.28216  0.69556  0.44682  1.0000
  Au  Au16      1.0  0.69556  0.44682  0.28216  1.0000
  Au  Au17      1.0  0.44682  0.28216  0.69556  1.0000
  Au  Au18      1.0  0.71784  0.30444  0.55318  1.0000
  Au  Au19      1.0  0.30444  0.55318  0.71784  1.0000
  Au  Au20      1.0  0.55318  0.71784  0.30444  1.0000
