data_image0
_chemical_formula_structural       Te4Au8
_chemical_formula_sum              "Te4 Au8"
_cell_length_a       4.1439
_cell_length_b       5.71488
_cell_length_c       11.7717
_cell_angle_alpha    90
_cell_angle_beta     90
_cell_angle_gamma    90

_space_group_name_H-M_alt    "P 1"
_space_group_IT_number       1

loop_
  _space_group_symop_operation_xyz
  'x, y, z'

loop_
  _atom_site_type_symbol
  _atom_site_label
  _atom_site_symmetry_multiplicity
  _atom_site_fract_x
  _atom_site_fract_y
  _atom_site_fract_z
  _atom_site_occupancy
  Te  Te1       1.0  0.75000  0.75020  0.91115  1.0000
  Te  Te2       1.0  0.75000  0.25020  0.58885  1.0000
  Te  Te3       1.0  0.25000  0.24980  0.08885  1.0000
  Te  Te4       1.0  0.25000  0.74980  0.41115  1.0000
  Au  Au1       1.0  0.75000  0.25250  0.24959  1.0000
  Au  Au2       1.0  0.75000  0.75250  0.25041  1.0000
  Au  Au3       1.0  0.25000  0.74750  0.75041  1.0000
  Au  Au4       1.0  0.25000  0.24750  0.74959  1.0000
  Au  Au5       1.0  0.75000  0.25026  0.91083  1.0000
  Au  Au6       1.0  0.75000  0.75026  0.58917  1.0000
  Au  Au7       1.0  0.25000  0.74974  0.08917  1.0000
  Au  Au8       1.0  0.25000  0.24974  0.41083  1.0000
