data_image0
_chemical_formula_structural       Ag8Te4
_chemical_formula_sum              "Ag8 Te4"
_cell_length_a       9.38499
_cell_length_b       4.87942
_cell_length_c       8.74314
_cell_angle_alpha    52.808
_cell_angle_beta     90
_cell_angle_gamma    90

_space_group_name_H-M_alt    "P 1"
_space_group_IT_number       1

loop_
  _space_group_symop_operation_xyz
  'x, y, z'

loop_
  _atom_site_type_symbol
  _atom_site_label
  _atom_site_symmetry_multiplicity
  _atom_site_fract_x
  _atom_site_fract_y
  _atom_site_fract_z
  _atom_site_occupancy
  Ag  Ag1       1.0  0.37933  0.33810  0.34784  1.0000
  Ag  Ag2       1.0  0.62067  0.33810  0.84784  1.0000
  Ag  Ag3       1.0  0.36415  0.76092  0.76574  1.0000
  Ag  Ag4       1.0  0.87626  0.24151  0.22349  1.0000
  Ag  Ag5       1.0  0.63585  0.76092  0.26574  1.0000
  Ag  Ag6       1.0  0.12374  0.24151  0.72349  1.0000
  Ag  Ag7       1.0  0.87886  0.76004  0.76063  1.0000
  Ag  Ag8       1.0  0.12114  0.76004  0.26063  1.0000
  Te  Te1       1.0  0.36092  0.99950  0.99072  1.0000
  Te  Te2       1.0  0.63908  0.99950  0.49072  1.0000
  Te  Te3       1.0  0.88396  0.98323  0.99487  1.0000
  Te  Te4       1.0  0.11604  0.98323  0.49487  1.0000
