data_image0
_chemical_formula_structural       Te3Au4
_chemical_formula_sum              "Te3 Au4"
_cell_length_a       8.3336
_cell_length_b       8.3336
_cell_length_c       8.03966
_cell_angle_alpha    49.2323
_cell_angle_beta     49.2323
_cell_angle_gamma    27.6397

_space_group_name_H-M_alt    "P 1"
_space_group_IT_number       1

loop_
  _space_group_symop_operation_xyz
  'x, y, z'

loop_
  _atom_site_type_symbol
  _atom_site_label
  _atom_site_symmetry_multiplicity
  _atom_site_fract_x
  _atom_site_fract_y
  _atom_site_fract_z
  _atom_site_occupancy
  Te  Te1       1.0  0.00000  0.00000  0.00000  1.0000
  Te  Te2       1.0  0.30747  0.30747  0.73745  1.0000
  Te  Te3       1.0  0.69253  0.69253  0.26255  1.0000
  Au  Au1       1.0  0.06612  0.06612  0.56792  1.0000
  Au  Au2       1.0  0.93388  0.93388  0.43208  1.0000
  Au  Au3       1.0  0.59298  0.59298  0.09970  1.0000
  Au  Au4       1.0  0.40702  0.40702  0.90030  1.0000
