data_image0
_chemical_formula_structural       Te3Ag4
_chemical_formula_sum              "Te3 Ag4"
_cell_length_a       6.9237
_cell_length_b       6.9237
_cell_length_c       7.61225
_cell_angle_alpha    55.7868
_cell_angle_beta     55.7868
_cell_angle_gamma    38.7645

_space_group_name_H-M_alt    "P 1"
_space_group_IT_number       1

loop_
  _space_group_symop_operation_xyz
  'x, y, z'

loop_
  _atom_site_type_symbol
  _atom_site_label
  _atom_site_symmetry_multiplicity
  _atom_site_fract_x
  _atom_site_fract_y
  _atom_site_fract_z
  _atom_site_occupancy
  Te  Te1       1.0  0.00000  0.00000  0.00000  1.0000
  Te  Te2       1.0  0.35851  0.35851  0.66034  1.0000
  Te  Te3       1.0  0.64149  0.64149  0.33966  1.0000
  Ag  Ag1       1.0  0.16820  0.16820  0.53056  1.0000
  Ag  Ag2       1.0  0.83180  0.83180  0.46944  1.0000
  Ag  Ag3       1.0  0.65260  0.65260  0.94802  1.0000
  Ag  Ag4       1.0  0.34740  0.34740  0.05198  1.0000
