data_image0
_chemical_formula_structural       Te8Ag16
_chemical_formula_sum              "Te8 Ag16"
_cell_length_a       8.71828
_cell_length_b       7.7048
_cell_length_c       8.92822
_cell_angle_alpha    90
_cell_angle_beta     90
_cell_angle_gamma    90

_space_group_name_H-M_alt    "P 1"
_space_group_IT_number       1

loop_
  _space_group_symop_operation_xyz
  'x, y, z'

loop_
  _atom_site_type_symbol
  _atom_site_label
  _atom_site_symmetry_multiplicity
  _atom_site_fract_x
  _atom_site_fract_y
  _atom_site_fract_z
  _atom_site_occupancy
  Te  Te1       1.0  0.68221  0.79011  0.06446  1.0000
  Te  Te2       1.0  0.81779  0.70989  0.56446  1.0000
  Te  Te3       1.0  0.81779  0.29011  0.93554  1.0000
  Te  Te4       1.0  0.68221  0.20989  0.43554  1.0000
  Te  Te5       1.0  0.31779  0.20989  0.93554  1.0000
  Te  Te6       1.0  0.18221  0.29011  0.43554  1.0000
  Te  Te7       1.0  0.18221  0.70989  0.06446  1.0000
  Te  Te8       1.0  0.31779  0.79011  0.56446  1.0000
  Ag  Ag1       1.0  0.71991  0.50000  0.25000  1.0000
  Ag  Ag2       1.0  0.78009  0.00000  0.75000  1.0000
  Ag  Ag3       1.0  0.28009  0.50000  0.75000  1.0000
  Ag  Ag4       1.0  0.21991  0.00000  0.25000  1.0000
  Ag  Ag5       1.0  0.54576  0.84549  0.34717  1.0000
  Ag  Ag6       1.0  0.95424  0.65451  0.84717  1.0000
  Ag  Ag7       1.0  0.95424  0.34549  0.65283  1.0000
  Ag  Ag8       1.0  0.54576  0.15451  0.15283  1.0000
  Ag  Ag9       1.0  0.45424  0.15451  0.65283  1.0000
  Ag  Ag10      1.0  0.04576  0.34549  0.15283  1.0000
  Ag  Ag11      1.0  0.04576  0.65451  0.34717  1.0000
  Ag  Ag12      1.0  0.45424  0.84549  0.84717  1.0000
  Ag  Ag13      1.0  0.50000  0.50000  0.00000  1.0000
  Ag  Ag14      1.0  0.00000  0.00000  0.50000  1.0000
  Ag  Ag15      1.0  0.00000  0.00000  0.00000  1.0000
  Ag  Ag16      1.0  0.50000  0.50000  0.50000  1.0000
