data_image0
_chemical_formula_structural       Te4Ag2
_chemical_formula_sum              "Te4 Ag2"
_cell_length_a       6.04395
_cell_length_b       6.04395
_cell_length_c       6.04395
_cell_angle_alpha    115.286
_cell_angle_beta     115.286
_cell_angle_gamma    98.3791

_space_group_name_H-M_alt    "P 1"
_space_group_IT_number       1

loop_
  _space_group_symop_operation_xyz
  'x, y, z'

loop_
  _atom_site_type_symbol
  _atom_site_label
  _atom_site_symmetry_multiplicity
  _atom_site_fract_x
  _atom_site_fract_y
  _atom_site_fract_z
  _atom_site_occupancy
  Te  Te1       1.0  0.15515  0.65515  0.81031  1.0000
  Te  Te2       1.0  0.34485  0.15515  0.50000  1.0000
  Te  Te3       1.0  0.65515  0.84485  0.50000  1.0000
  Te  Te4       1.0  0.84485  0.34485  0.18969  1.0000
  Ag  Ag1       1.0  0.25000  0.25000  0.00000  1.0000
  Ag  Ag2       1.0  0.75000  0.75000  0.00000  1.0000
