data_image0
_chemical_formula_structural       Te2Ag4
_chemical_formula_sum              "Te2 Ag4"
_cell_length_a       4.62047
_cell_length_b       4.62047
_cell_length_c       8.49265
_cell_angle_alpha    90
_cell_angle_beta     90
_cell_angle_gamma    120

_space_group_name_H-M_alt    "P 1"
_space_group_IT_number       1

loop_
  _space_group_symop_operation_xyz
  'x, y, z'

loop_
  _atom_site_type_symbol
  _atom_site_label
  _atom_site_symmetry_multiplicity
  _atom_site_fract_x
  _atom_site_fract_y
  _atom_site_fract_z
  _atom_site_occupancy
  Te  Te1       1.0  0.66667  0.33333  0.75000  1.0000
  Te  Te2       1.0  0.33333  0.66667  0.25000  1.0000
  Ag  Ag1       1.0  0.33333  0.66667  0.91496  1.0000
  Ag  Ag2       1.0  0.66667  0.33333  0.41496  1.0000
  Ag  Ag3       1.0  0.33333  0.66667  0.58504  1.0000
  Ag  Ag4       1.0  0.66667  0.33333  0.08504  1.0000
