data_image0
_chemical_formula_structural       Te4Au12
_chemical_formula_sum              "Te4 Au12"
_cell_length_a       11.1578
_cell_length_b       11.1578
_cell_length_c       5.78464
_cell_angle_alpha    90
_cell_angle_beta     90
_cell_angle_gamma    151.117

_space_group_name_H-M_alt    "P 1"
_space_group_IT_number       1

loop_
  _space_group_symop_operation_xyz
  'x, y, z'

loop_
  _atom_site_type_symbol
  _atom_site_label
  _atom_site_symmetry_multiplicity
  _atom_site_fract_x
  _atom_site_fract_y
  _atom_site_fract_z
  _atom_site_occupancy
  Te  Te1       1.0  0.63934  0.36066  0.00000  1.0000
  Te  Te2       1.0  0.36066  0.63934  0.00000  1.0000
  Te  Te3       1.0  0.13934  0.86066  0.50000  1.0000
  Te  Te4       1.0  0.86066  0.13934  0.50000  1.0000
  Au  Au1       1.0  0.68776  0.68776  0.18197  1.0000
  Au  Au2       1.0  0.18776  0.18776  0.31803  1.0000
  Au  Au3       1.0  0.81224  0.81224  0.68197  1.0000
  Au  Au4       1.0  0.40467  0.59533  0.50000  1.0000
  Au  Au5       1.0  0.74443  0.24443  0.75000  1.0000
  Au  Au6       1.0  0.90467  0.09533  0.00000  1.0000
  Au  Au7       1.0  0.25557  0.75557  0.25000  1.0000
  Au  Au8       1.0  0.31224  0.31224  0.81803  1.0000
  Au  Au9       1.0  0.59533  0.40467  0.50000  1.0000
  Au  Au10      1.0  0.09533  0.90467  0.00000  1.0000
  Au  Au11      1.0  0.75557  0.25557  0.25000  1.0000
  Au  Au12      1.0  0.24443  0.74443  0.75000  1.0000
