data_image0
_chemical_formula_structural       Te4Ag6
_chemical_formula_sum              "Te4 Ag6"
_cell_length_a       7.45055
_cell_length_b       7.45055
_cell_length_c       7.45055
_cell_angle_alpha    132.778
_cell_angle_beta     123.58
_cell_angle_gamma    76.5695

_space_group_name_H-M_alt    "P 1"
_space_group_IT_number       1

loop_
  _space_group_symop_operation_xyz
  'x, y, z'

loop_
  _atom_site_type_symbol
  _atom_site_label
  _atom_site_symmetry_multiplicity
  _atom_site_fract_x
  _atom_site_fract_y
  _atom_site_fract_z
  _atom_site_occupancy
  Te  Te1       1.0  0.58832  0.35810  0.23022  1.0000
  Te  Te2       1.0  0.41168  0.64190  0.76978  1.0000
  Te  Te3       1.0  0.87211  0.14190  0.73022  1.0000
  Te  Te4       1.0  0.12789  0.85810  0.26978  1.0000
  Ag  Ag1       1.0  0.56393  0.88406  0.67987  1.0000
  Ag  Ag2       1.0  0.43607  0.11594  0.32013  1.0000
  Ag  Ag3       1.0  0.20419  0.38406  0.82013  1.0000
  Ag  Ag4       1.0  0.79581  0.61594  0.17987  1.0000
  Ag  Ag5       1.0  0.00000  0.75000  0.75000  1.0000
  Ag  Ag6       1.0  0.00000  0.25000  0.25000  1.0000
