data_image0
_chemical_formula_structural       Te8Ag4
_chemical_formula_sum              "Te8 Ag4"
_cell_length_a       5.61913
_cell_length_b       7.83201
_cell_length_c       8.18101
_cell_angle_alpha    90
_cell_angle_beta     90
_cell_angle_gamma    90

_space_group_name_H-M_alt    "P 1"
_space_group_IT_number       1

loop_
  _space_group_symop_operation_xyz
  'x, y, z'

loop_
  _atom_site_type_symbol
  _atom_site_label
  _atom_site_symmetry_multiplicity
  _atom_site_fract_x
  _atom_site_fract_y
  _atom_site_fract_z
  _atom_site_occupancy
  Te  Te1       1.0  0.19623  0.04472  0.90431  1.0000
  Te  Te2       1.0  0.69623  0.95528  0.59569  1.0000
  Te  Te3       1.0  0.30377  0.54472  0.59569  1.0000
  Te  Te4       1.0  0.80377  0.45528  0.90431  1.0000
  Te  Te5       1.0  0.19623  0.54472  0.09569  1.0000
  Te  Te6       1.0  0.69623  0.45528  0.40431  1.0000
  Te  Te7       1.0  0.30377  0.04472  0.40431  1.0000
  Te  Te8       1.0  0.80377  0.95528  0.09569  1.0000
  Ag  Ag1       1.0  0.50000  0.75000  0.87272  1.0000
  Ag  Ag2       1.0  0.00000  0.25000  0.62728  1.0000
  Ag  Ag3       1.0  0.50000  0.25000  0.12728  1.0000
  Ag  Ag4       1.0  0.00000  0.75000  0.37272  1.0000
