data_image0
_chemical_formula_structural       Ag12Te
_chemical_formula_sum              "Ag12 Te1"
_cell_length_a       6.90373
_cell_length_b       6.90373
_cell_length_c       6.90373
_cell_angle_alpha    109.471
_cell_angle_beta     109.471
_cell_angle_gamma    109.471

_space_group_name_H-M_alt    "P 1"
_space_group_IT_number       1

loop_
  _space_group_symop_operation_xyz
  'x, y, z'

loop_
  _atom_site_type_symbol
  _atom_site_label
  _atom_site_symmetry_multiplicity
  _atom_site_fract_x
  _atom_site_fract_y
  _atom_site_fract_z
  _atom_site_occupancy
  Ag  Ag1       1.0  0.67917  0.86571  0.18654  1.0000
  Ag  Ag2       1.0  0.81346  0.32083  0.13429  1.0000
  Ag  Ag3       1.0  0.49263  0.81346  0.67917  1.0000
  Ag  Ag4       1.0  0.81346  0.67917  0.49263  1.0000
  Ag  Ag5       1.0  0.50737  0.18654  0.32083  1.0000
  Ag  Ag6       1.0  0.18654  0.67917  0.86571  1.0000
  Ag  Ag7       1.0  0.86571  0.18654  0.67917  1.0000
  Ag  Ag8       1.0  0.13429  0.81346  0.32083  1.0000
  Ag  Ag9       1.0  0.18654  0.32083  0.50737  1.0000
  Ag  Ag10      1.0  0.67917  0.49263  0.81346  1.0000
  Ag  Ag11      1.0  0.32083  0.50737  0.18654  1.0000
  Ag  Ag12      1.0  0.32083  0.13429  0.81346  1.0000
  Te  Te1       1.0  0.00000  0.00000  0.00000  1.0000
