data_image0
_chemical_formula_structural       Au10Te4
_chemical_formula_sum              "Au10 Te4"
_cell_length_a       9.17712
_cell_length_b       9.17712
_cell_length_c       7.9763
_cell_angle_alpha    55.6138
_cell_angle_beta     55.6138
_cell_angle_gamma    37.2564

_space_group_name_H-M_alt    "P 1"
_space_group_IT_number       1

loop_
  _space_group_symop_operation_xyz
  'x, y, z'

loop_
  _atom_site_type_symbol
  _atom_site_label
  _atom_site_symmetry_multiplicity
  _atom_site_fract_x
  _atom_site_fract_y
  _atom_site_fract_z
  _atom_site_occupancy
  Au  Au1       1.0  0.25608  0.74392  0.00000  1.0000
  Au  Au2       1.0  0.74392  0.25608  0.00000  1.0000
  Au  Au3       1.0  0.60042  0.60042  0.13316  1.0000
  Au  Au4       1.0  0.39958  0.39958  0.86684  1.0000
  Au  Au5       1.0  0.12111  0.12111  0.53174  1.0000
  Au  Au6       1.0  0.87889  0.87889  0.46826  1.0000
  Au  Au7       1.0  0.45804  0.94757  0.73586  1.0000
  Au  Au8       1.0  0.05243  0.54196  0.26414  1.0000
  Au  Au9       1.0  0.94757  0.45804  0.73586  1.0000
  Au  Au10      1.0  0.54196  0.05243  0.26414  1.0000
  Te  Te1       1.0  0.07399  0.07399  0.18959  1.0000
  Te  Te2       1.0  0.92601  0.92601  0.81041  1.0000
  Te  Te3       1.0  0.63249  0.63249  0.42296  1.0000
  Te  Te4       1.0  0.36751  0.36751  0.57704  1.0000
