data_image0
_chemical_formula_structural       Ag6Te4
_chemical_formula_sum              "Ag6 Te4"
_cell_length_a       7.71998
_cell_length_b       7.71998
_cell_length_c       10.3855
_cell_angle_alpha    62.8247
_cell_angle_beta     62.8247
_cell_angle_gamma    30.9476

_space_group_name_H-M_alt    "P 1"
_space_group_IT_number       1

loop_
  _space_group_symop_operation_xyz
  'x, y, z'

loop_
  _atom_site_type_symbol
  _atom_site_label
  _atom_site_symmetry_multiplicity
  _atom_site_fract_x
  _atom_site_fract_y
  _atom_site_fract_z
  _atom_site_occupancy
  Ag  Ag1       1.0  0.13234  0.13234  0.24481  1.0000
  Ag  Ag2       1.0  0.86766  0.86766  0.75519  1.0000
  Ag  Ag3       1.0  0.36145  0.36145  0.34062  1.0000
  Ag  Ag4       1.0  0.63855  0.63855  0.65938  1.0000
  Ag  Ag5       1.0  0.89736  0.89736  0.11549  1.0000
  Ag  Ag6       1.0  0.10264  0.10264  0.88451  1.0000
  Te  Te1       1.0  0.43628  0.43628  0.87775  1.0000
  Te  Te2       1.0  0.56372  0.56372  0.12225  1.0000
  Te  Te3       1.0  0.29834  0.29834  0.64291  1.0000
  Te  Te4       1.0  0.70166  0.70166  0.35709  1.0000
