data_image0
_chemical_formula_structural       Au10Te6
_chemical_formula_sum              "Au10 Te6"
_cell_length_a       8.26179
_cell_length_b       8.26179
_cell_length_c       8.26179
_cell_angle_alpha    122.385
_cell_angle_beta     122.385
_cell_angle_gamma    85.9159

_space_group_name_H-M_alt    "P 1"
_space_group_IT_number       1

loop_
  _space_group_symop_operation_xyz
  'x, y, z'

loop_
  _atom_site_type_symbol
  _atom_site_label
  _atom_site_symmetry_multiplicity
  _atom_site_fract_x
  _atom_site_fract_y
  _atom_site_fract_z
  _atom_site_occupancy
  Au  Au1       1.0  0.45712  0.69238  0.50000  1.0000
  Au  Au2       1.0  0.54288  0.30762  0.50000  1.0000
  Au  Au3       1.0  0.50000  0.50000  0.00000  1.0000
  Au  Au4       1.0  0.00000  0.00000  0.00000  1.0000
  Au  Au5       1.0  0.19238  0.95712  0.50000  1.0000
  Au  Au6       1.0  0.95712  0.45712  0.76474  1.0000
  Au  Au7       1.0  0.69238  0.19238  0.23526  1.0000
  Au  Au8       1.0  0.30762  0.80762  0.76474  1.0000
  Au  Au9       1.0  0.04288  0.54288  0.23526  1.0000
  Au  Au10      1.0  0.80762  0.04288  0.50000  1.0000
  Te  Te1       1.0  0.77956  0.72044  0.50000  1.0000
  Te  Te2       1.0  0.72044  0.22044  0.94087  1.0000
  Te  Te3       1.0  0.27956  0.77956  0.05913  1.0000
  Te  Te4       1.0  0.22044  0.27956  0.50000  1.0000
  Te  Te5       1.0  0.25000  0.25000  0.00000  1.0000
  Te  Te6       1.0  0.75000  0.75000  0.00000  1.0000
