data_image0
_chemical_formula_structural       Te9Ag5
_chemical_formula_sum              "Te9 Ag5"
_cell_length_a       7.35567
_cell_length_b       7.35567
_cell_length_c       9.86956
_cell_angle_alpha    69.6059
_cell_angle_beta     69.6059
_cell_angle_gamma    62.9949

_space_group_name_H-M_alt    "P 1"
_space_group_IT_number       1

loop_
  _space_group_symop_operation_xyz
  'x, y, z'

loop_
  _atom_site_type_symbol
  _atom_site_label
  _atom_site_symmetry_multiplicity
  _atom_site_fract_x
  _atom_site_fract_y
  _atom_site_fract_z
  _atom_site_occupancy
  Te  Te1       1.0  0.30367  0.01513  0.42165  1.0000
  Te  Te2       1.0  0.98487  0.69633  0.57835  1.0000
  Te  Te3       1.0  0.31690  0.92028  0.09733  1.0000
  Te  Te4       1.0  0.04712  0.68430  0.28182  1.0000
  Te  Te5       1.0  0.31570  0.95288  0.71818  1.0000
  Te  Te6       1.0  0.68670  0.31330  0.50000  1.0000
  Te  Te7       1.0  0.07972  0.68310  0.90267  1.0000
  Te  Te8       1.0  0.81956  0.38413  0.12245  1.0000
  Te  Te9       1.0  0.61587  0.18044  0.87755  1.0000
  Ag  Ag1       1.0  0.94032  0.31340  0.67187  1.0000
  Ag  Ag2       1.0  0.47026  0.52974  0.00000  1.0000
  Ag  Ag3       1.0  0.68660  0.05968  0.32813  1.0000
  Ag  Ag4       1.0  0.30768  0.39297  0.71453  1.0000
  Ag  Ag5       1.0  0.60703  0.69232  0.28547  1.0000
