data_image0
_chemical_formula_structural       Sn8Tl8
_chemical_formula_sum              "Sn8 Tl8"
_cell_length_a       7.60396
_cell_length_b       7.60396
_cell_length_c       9.42408
_cell_angle_alpha    90
_cell_angle_beta     90
_cell_angle_gamma    90

_space_group_name_H-M_alt    "P 1"
_space_group_IT_number       1

loop_
  _space_group_symop_operation_xyz
  'x, y, z'

loop_
  _atom_site_type_symbol
  _atom_site_label
  _atom_site_symmetry_multiplicity
  _atom_site_fract_x
  _atom_site_fract_y
  _atom_site_fract_z
  _atom_site_occupancy
  Sn  Sn1       1.0  0.63203  0.64950  0.00000  1.0000
  Sn  Sn2       1.0  0.35050  0.63203  0.50000  1.0000
  Sn  Sn3       1.0  0.64950  0.36797  0.50000  1.0000
  Sn  Sn4       1.0  0.36797  0.35050  0.00000  1.0000
  Sn  Sn5       1.0  0.50000  0.00000  0.50000  1.0000
  Sn  Sn6       1.0  0.00000  0.50000  0.00000  1.0000
  Sn  Sn7       1.0  0.00000  0.00000  0.75000  1.0000
  Sn  Sn8       1.0  0.00000  0.00000  0.25000  1.0000
  Tl  Tl1       1.0  0.18587  0.34343  0.68854  1.0000
  Tl  Tl2       1.0  0.65657  0.18587  0.18854  1.0000
  Tl  Tl3       1.0  0.34343  0.81413  0.18854  1.0000
  Tl  Tl4       1.0  0.81413  0.65657  0.68854  1.0000
  Tl  Tl5       1.0  0.81413  0.65657  0.31146  1.0000
  Tl  Tl6       1.0  0.34343  0.81413  0.81146  1.0000
  Tl  Tl7       1.0  0.65657  0.18587  0.81146  1.0000
  Tl  Tl8       1.0  0.18587  0.34343  0.31146  1.0000
