data_image0
_chemical_formula_structural       Te16Au24
_chemical_formula_sum              "Te16 Au24"
_cell_length_a       9.95655
_cell_length_b       7.80739
_cell_length_c       13.942
_cell_angle_alpha    90
_cell_angle_beta     90
_cell_angle_gamma    90

_space_group_name_H-M_alt    "P 1"
_space_group_IT_number       1

loop_
  _space_group_symop_operation_xyz
  'x, y, z'

loop_
  _atom_site_type_symbol
  _atom_site_label
  _atom_site_symmetry_multiplicity
  _atom_site_fract_x
  _atom_site_fract_y
  _atom_site_fract_z
  _atom_site_occupancy
  Te  Te1       1.0  0.91374  0.75000  0.01398  1.0000
  Te  Te2       1.0  0.41374  0.25000  0.48602  1.0000
  Te  Te3       1.0  0.08626  0.25000  0.98602  1.0000
  Te  Te4       1.0  0.58626  0.75000  0.51398  1.0000
  Te  Te5       1.0  0.41473  0.75000  0.01427  1.0000
  Te  Te6       1.0  0.91473  0.25000  0.48573  1.0000
  Te  Te7       1.0  0.58527  0.25000  0.98573  1.0000
  Te  Te8       1.0  0.08527  0.75000  0.51427  1.0000
  Te  Te9       1.0  0.73700  0.49970  0.24982  1.0000
  Te  Te10      1.0  0.23700  0.50030  0.25018  1.0000
  Te  Te11      1.0  0.26300  0.99970  0.75018  1.0000
  Te  Te12      1.0  0.76300  0.00030  0.74982  1.0000
  Te  Te13      1.0  0.26300  0.50030  0.75018  1.0000
  Te  Te14      1.0  0.76300  0.49970  0.74982  1.0000
  Te  Te15      1.0  0.73700  0.00030  0.24982  1.0000
  Te  Te16      1.0  0.23700  0.99970  0.25018  1.0000
  Au  Au1       1.0  0.08412  0.75000  0.16608  1.0000
  Au  Au2       1.0  0.58412  0.25000  0.33392  1.0000
  Au  Au3       1.0  0.91588  0.25000  0.83392  1.0000
  Au  Au4       1.0  0.41588  0.75000  0.66608  1.0000
  Au  Au5       1.0  0.58504  0.75000  0.16575  1.0000
  Au  Au6       1.0  0.08504  0.25000  0.33425  1.0000
  Au  Au7       1.0  0.41496  0.25000  0.83425  1.0000
  Au  Au8       1.0  0.91496  0.75000  0.66575  1.0000
  Au  Au9       1.0  0.92413  0.07464  0.11517  1.0000
  Au  Au10      1.0  0.42413  0.92536  0.38483  1.0000
  Au  Au11      1.0  0.07587  0.57464  0.88483  1.0000
  Au  Au12      1.0  0.57587  0.42536  0.61517  1.0000
  Au  Au13      1.0  0.07587  0.92536  0.88483  1.0000
  Au  Au14      1.0  0.57587  0.07464  0.61517  1.0000
  Au  Au15      1.0  0.92413  0.42536  0.11517  1.0000
  Au  Au16      1.0  0.42413  0.57464  0.38483  1.0000
  Au  Au17      1.0  0.42162  0.07491  0.11424  1.0000
  Au  Au18      1.0  0.92162  0.92509  0.38576  1.0000
  Au  Au19      1.0  0.57838  0.57491  0.88576  1.0000
  Au  Au20      1.0  0.07838  0.42509  0.61424  1.0000
  Au  Au21      1.0  0.57838  0.92509  0.88576  1.0000
  Au  Au22      1.0  0.07838  0.07491  0.61424  1.0000
  Au  Au23      1.0  0.42162  0.42509  0.11424  1.0000
  Au  Au24      1.0  0.92162  0.57491  0.38576  1.0000
