data_image0
_chemical_formula_structural       Te10Ag6
_chemical_formula_sum              "Te10 Ag6"
_cell_length_a       9.38389
_cell_length_b       9.38389
_cell_length_c       9.38389
_cell_angle_alpha    96.3886
_cell_angle_beta     96.3886
_cell_angle_gamma    141.028

_space_group_name_H-M_alt    "P 1"
_space_group_IT_number       1

loop_
  _space_group_symop_operation_xyz
  'x, y, z'

loop_
  _atom_site_type_symbol
  _atom_site_label
  _atom_site_symmetry_multiplicity
  _atom_site_fract_x
  _atom_site_fract_y
  _atom_site_fract_z
  _atom_site_occupancy
  Te  Te1       1.0  0.64997  0.34366  0.99364  1.0000
  Te  Te2       1.0  0.35003  0.65634  0.00636  1.0000
  Te  Te3       1.0  0.65634  0.64997  0.30631  1.0000
  Te  Te4       1.0  0.34366  0.35003  0.69369  1.0000
  Te  Te5       1.0  0.85003  0.84366  0.69369  1.0000
  Te  Te6       1.0  0.15634  0.85003  0.00636  1.0000
  Te  Te7       1.0  0.25000  0.75000  0.50000  1.0000
  Te  Te8       1.0  0.75000  0.25000  0.50000  1.0000
  Te  Te9       1.0  0.14997  0.15634  0.30631  1.0000
  Te  Te10      1.0  0.84366  0.14997  0.99364  1.0000
  Ag  Ag1       1.0  0.86980  0.36980  0.23960  1.0000
  Ag  Ag2       1.0  0.63020  0.86980  0.50000  1.0000
  Ag  Ag3       1.0  0.36980  0.13020  0.50000  1.0000
  Ag  Ag4       1.0  0.13020  0.63020  0.76040  1.0000
  Ag  Ag5       1.0  0.75000  0.75000  0.00000  1.0000
  Ag  Ag6       1.0  0.25000  0.25000  0.00000  1.0000
