data_image0
_chemical_formula_structural       TeAu3
_chemical_formula_sum              "Te1 Au3"
_cell_length_a       6.83766
_cell_length_b       6.83766
_cell_length_c       6.83766
_cell_angle_alpha    34.2924
_cell_angle_beta     34.2924
_cell_angle_gamma    34.2924

_space_group_name_H-M_alt    "P 1"
_space_group_IT_number       1

loop_
  _space_group_symop_operation_xyz
  'x, y, z'

loop_
  _atom_site_type_symbol
  _atom_site_label
  _atom_site_symmetry_multiplicity
  _atom_site_fract_x
  _atom_site_fract_y
  _atom_site_fract_z
  _atom_site_occupancy
  Te  Te1       1.0  0.00000  0.00000  0.00000  1.0000
  Au  Au1       1.0  0.24577  0.24577  0.24577  1.0000
  Au  Au2       1.0  0.50000  0.50000  0.50000  1.0000
  Au  Au3       1.0  0.75423  0.75423  0.75423  1.0000
