data_image0
_chemical_formula_structural       Ag12Te4
_chemical_formula_sum              "Ag12 Te4"
_cell_length_a       8.35345
_cell_length_b       8.35345
_cell_length_c       5.80187
_cell_angle_alpha    90
_cell_angle_beta     90
_cell_angle_gamma    90

_space_group_name_H-M_alt    "P 1"
_space_group_IT_number       1

loop_
  _space_group_symop_operation_xyz
  'x, y, z'

loop_
  _atom_site_type_symbol
  _atom_site_label
  _atom_site_symmetry_multiplicity
  _atom_site_fract_x
  _atom_site_fract_y
  _atom_site_fract_z
  _atom_site_occupancy
  Ag  Ag1       1.0  0.50000  0.00000  0.00000  1.0000
  Ag  Ag2       1.0  0.50000  0.00000  0.50000  1.0000
  Ag  Ag3       1.0  0.00000  0.50000  0.00000  1.0000
  Ag  Ag4       1.0  0.00000  0.50000  0.50000  1.0000
  Ag  Ag5       1.0  0.64971  0.35029  0.74599  1.0000
  Ag  Ag6       1.0  0.85029  0.85029  0.75401  1.0000
  Ag  Ag7       1.0  0.14971  0.14971  0.75401  1.0000
  Ag  Ag8       1.0  0.35029  0.64971  0.74599  1.0000
  Ag  Ag9       1.0  0.35029  0.64971  0.25401  1.0000
  Ag  Ag10      1.0  0.64971  0.35029  0.25401  1.0000
  Ag  Ag11      1.0  0.85029  0.85029  0.24599  1.0000
  Ag  Ag12      1.0  0.14971  0.14971  0.24599  1.0000
  Te  Te1       1.0  0.84508  0.15492  0.00000  1.0000
  Te  Te2       1.0  0.65492  0.65492  0.50000  1.0000
  Te  Te3       1.0  0.34508  0.34508  0.50000  1.0000
  Te  Te4       1.0  0.15492  0.84508  0.00000  1.0000
