data_image0
_chemical_formula_structural       Te3Au4
_chemical_formula_sum              "Te3 Au4"
_cell_length_a       8.26242
_cell_length_b       8.26242
_cell_length_c       7.21443
_cell_angle_alpha    58.806
_cell_angle_beta     58.806
_cell_angle_gamma    28.2148

_space_group_name_H-M_alt    "P 1"
_space_group_IT_number       1

loop_
  _space_group_symop_operation_xyz
  'x, y, z'

loop_
  _atom_site_type_symbol
  _atom_site_label
  _atom_site_symmetry_multiplicity
  _atom_site_fract_x
  _atom_site_fract_y
  _atom_site_fract_z
  _atom_site_occupancy
  Te  Te1       1.0  0.20352  0.20352  0.76542  1.0000
  Te  Te2       1.0  0.79648  0.79648  0.23458  1.0000
  Te  Te3       1.0  0.50000  0.50000  0.50000  1.0000
  Au  Au1       1.0  0.87438  0.87438  0.48504  1.0000
  Au  Au2       1.0  0.12562  0.12562  0.51496  1.0000
  Au  Au3       1.0  0.38834  0.38834  0.94807  1.0000
  Au  Au4       1.0  0.61166  0.61166  0.05193  1.0000
