data_image0
_chemical_formula_structural       Te10Au6
_chemical_formula_sum              "Te10 Au6"
_cell_length_a       8.49877
_cell_length_b       8.49877
_cell_length_c       8.49877
_cell_angle_alpha    102.786
_cell_angle_beta     102.786
_cell_angle_gamma    123.875

_space_group_name_H-M_alt    "P 1"
_space_group_IT_number       1

loop_
  _space_group_symop_operation_xyz
  'x, y, z'

loop_
  _atom_site_type_symbol
  _atom_site_label
  _atom_site_symmetry_multiplicity
  _atom_site_fract_x
  _atom_site_fract_y
  _atom_site_fract_z
  _atom_site_occupancy
  Te  Te1       1.0  0.61071  0.30587  0.91657  1.0000
  Te  Te2       1.0  0.38929  0.69413  0.08343  1.0000
  Te  Te3       1.0  0.69413  0.61071  0.30484  1.0000
  Te  Te4       1.0  0.30587  0.38929  0.69516  1.0000
  Te  Te5       1.0  0.88929  0.80587  0.69516  1.0000
  Te  Te6       1.0  0.19413  0.88929  0.08343  1.0000
  Te  Te7       1.0  0.25000  0.75000  0.50000  1.0000
  Te  Te8       1.0  0.75000  0.25000  0.50000  1.0000
  Te  Te9       1.0  0.11071  0.19413  0.30484  1.0000
  Te  Te10      1.0  0.80587  0.11071  0.91657  1.0000
  Au  Au1       1.0  0.87118  0.37118  0.24235  1.0000
  Au  Au2       1.0  0.62882  0.87118  0.50000  1.0000
  Au  Au3       1.0  0.37118  0.12882  0.50000  1.0000
  Au  Au4       1.0  0.12882  0.62882  0.75765  1.0000
  Au  Au5       1.0  0.75000  0.75000  0.00000  1.0000
  Au  Au6       1.0  0.25000  0.25000  0.00000  1.0000
