data_image0
_chemical_formula_structural       Ag10Te6
_chemical_formula_sum              "Ag10 Te6"
_cell_length_a       8.18138
_cell_length_b       8.18138
_cell_length_c       8.18138
_cell_angle_alpha    122.582
_cell_angle_beta     122.582
_cell_angle_gamma    85.5831

_space_group_name_H-M_alt    "P 1"
_space_group_IT_number       1

loop_
  _space_group_symop_operation_xyz
  'x, y, z'

loop_
  _atom_site_type_symbol
  _atom_site_label
  _atom_site_symmetry_multiplicity
  _atom_site_fract_x
  _atom_site_fract_y
  _atom_site_fract_z
  _atom_site_occupancy
  Ag  Ag1       1.0  0.46788  0.69638  0.50000  1.0000
  Ag  Ag2       1.0  0.53212  0.30362  0.50000  1.0000
  Ag  Ag3       1.0  0.50000  0.50000  0.00000  1.0000
  Ag  Ag4       1.0  0.00000  0.00000  0.00000  1.0000
  Ag  Ag5       1.0  0.19638  0.96788  0.50000  1.0000
  Ag  Ag6       1.0  0.96788  0.46788  0.77151  1.0000
  Ag  Ag7       1.0  0.69638  0.19638  0.22849  1.0000
  Ag  Ag8       1.0  0.30362  0.80362  0.77151  1.0000
  Ag  Ag9       1.0  0.03212  0.53212  0.22849  1.0000
  Ag  Ag10      1.0  0.80362  0.03212  0.50000  1.0000
  Te  Te1       1.0  0.82949  0.67051  0.50000  1.0000
  Te  Te2       1.0  0.67051  0.17051  0.84103  1.0000
  Te  Te3       1.0  0.32949  0.82949  0.15897  1.0000
  Te  Te4       1.0  0.17051  0.32949  0.50000  1.0000
  Te  Te5       1.0  0.25000  0.25000  0.00000  1.0000
  Te  Te6       1.0  0.75000  0.75000  0.00000  1.0000
