data_image0
_chemical_formula_structural       Te12Ag4
_chemical_formula_sum              "Te12 Ag4"
_cell_length_a       10.5462
_cell_length_b       10.5462
_cell_length_c       10.5462
_cell_angle_alpha    92.4896
_cell_angle_beta     92.4896
_cell_angle_gamma    155.941

_space_group_name_H-M_alt    "P 1"
_space_group_IT_number       1

loop_
  _space_group_symop_operation_xyz
  'x, y, z'

loop_
  _atom_site_type_symbol
  _atom_site_label
  _atom_site_symmetry_multiplicity
  _atom_site_fract_x
  _atom_site_fract_y
  _atom_site_fract_z
  _atom_site_occupancy
  Te  Te1       1.0  0.12675  0.50000  0.62675  1.0000
  Te  Te2       1.0  0.50000  0.87325  0.37325  1.0000
  Te  Te3       1.0  0.50000  0.12675  0.62675  1.0000
  Te  Te4       1.0  0.87325  0.50000  0.37325  1.0000
  Te  Te5       1.0  0.19904  0.19904  0.81798  1.0000
  Te  Te6       1.0  0.61894  0.80096  0.00000  1.0000
  Te  Te7       1.0  0.80096  0.61894  0.00000  1.0000
  Te  Te8       1.0  0.38106  0.38106  0.18202  1.0000
  Te  Te9       1.0  0.54719  0.54719  0.60605  1.0000
  Te  Te10      1.0  0.05886  0.45281  0.00000  1.0000
  Te  Te11      1.0  0.45281  0.05886  0.00000  1.0000
  Te  Te12      1.0  0.94114  0.94114  0.39395  1.0000
  Ag  Ag1       1.0  0.75101  0.00000  0.75101  1.0000
  Ag  Ag2       1.0  0.00000  0.24899  0.24899  1.0000
  Ag  Ag3       1.0  0.00000  0.75101  0.75101  1.0000
  Ag  Ag4       1.0  0.24899  0.00000  0.24899  1.0000
