data_image0
_chemical_formula_structural       Te2Ag4
_chemical_formula_sum              "Te2 Ag4"
_cell_length_a       5.88154
_cell_length_b       5.88154
_cell_length_c       5.88154
_cell_angle_alpha    119.562
_cell_angle_beta     119.562
_cell_angle_gamma    90.7611

_space_group_name_H-M_alt    "P 1"
_space_group_IT_number       1

loop_
  _space_group_symop_operation_xyz
  'x, y, z'

loop_
  _atom_site_type_symbol
  _atom_site_label
  _atom_site_symmetry_multiplicity
  _atom_site_fract_x
  _atom_site_fract_y
  _atom_site_fract_z
  _atom_site_occupancy
  Te  Te1       1.0  0.25000  0.25000  0.00000  1.0000
  Te  Te2       1.0  0.75000  0.75000  0.00000  1.0000
  Ag  Ag1       1.0  0.69560  0.19560  0.89121  1.0000
  Ag  Ag2       1.0  0.30440  0.80440  0.10879  1.0000
  Ag  Ag3       1.0  0.80440  0.69560  0.50000  1.0000
  Ag  Ag4       1.0  0.19560  0.30440  0.50000  1.0000
