data_image0
_chemical_formula_structural       TeAu4
_chemical_formula_sum              "Te1 Au4"
_cell_length_a       5.2985
_cell_length_b       5.2985
_cell_length_c       5.2985
_cell_angle_alpha    99.1718
_cell_angle_beta     99.1718
_cell_angle_gamma    132.938

_space_group_name_H-M_alt    "P 1"
_space_group_IT_number       1

loop_
  _space_group_symop_operation_xyz
  'x, y, z'

loop_
  _atom_site_type_symbol
  _atom_site_label
  _atom_site_symmetry_multiplicity
  _atom_site_fract_x
  _atom_site_fract_y
  _atom_site_fract_z
  _atom_site_occupancy
  Te  Te1       1.0  0.00000  0.00000  0.00000  1.0000
  Au  Au1       1.0  0.59762  0.80763  0.40524  1.0000
  Au  Au2       1.0  0.40238  0.19237  0.59476  1.0000
  Au  Au3       1.0  0.19237  0.59762  0.78999  1.0000
  Au  Au4       1.0  0.80763  0.40238  0.21001  1.0000
