data_image0
_chemical_formula_structural       Br4Te2
_chemical_formula_sum              "Br4 Te2"
_cell_length_a       6.12718
_cell_length_b       6.12718
_cell_length_c       6.12718
_cell_angle_alpha    107.608
_cell_angle_beta     107.608
_cell_angle_gamma    113.266

_space_group_name_H-M_alt    "P 1"
_space_group_IT_number       1

loop_
  _space_group_symop_operation_xyz
  'x, y, z'

loop_
  _atom_site_type_symbol
  _atom_site_label
  _atom_site_symmetry_multiplicity
  _atom_site_fract_x
  _atom_site_fract_y
  _atom_site_fract_z
  _atom_site_occupancy
  Br  Br1       1.0  0.30684  0.80684  0.11368  1.0000
  Br  Br2       1.0  0.19316  0.30684  0.50000  1.0000
  Br  Br3       1.0  0.80684  0.69316  0.50000  1.0000
  Br  Br4       1.0  0.69316  0.19316  0.88632  1.0000
  Te  Te1       1.0  0.75000  0.75000  0.00000  1.0000
  Te  Te2       1.0  0.25000  0.25000  0.00000  1.0000
