data_image0
_chemical_formula_structural       Te4Au2
_chemical_formula_sum              "Te4 Au2"
_cell_length_a       5.96141
_cell_length_b       5.96141
_cell_length_c       5.96141
_cell_angle_alpha    114.716
_cell_angle_beta     114.716
_cell_angle_gamma    99.4255

_space_group_name_H-M_alt    "P 1"
_space_group_IT_number       1

loop_
  _space_group_symop_operation_xyz
  'x, y, z'

loop_
  _atom_site_type_symbol
  _atom_site_label
  _atom_site_symmetry_multiplicity
  _atom_site_fract_x
  _atom_site_fract_y
  _atom_site_fract_z
  _atom_site_occupancy
  Te  Te1       1.0  0.16017  0.66017  0.82033  1.0000
  Te  Te2       1.0  0.33983  0.16017  0.50000  1.0000
  Te  Te3       1.0  0.66017  0.83983  0.50000  1.0000
  Te  Te4       1.0  0.83983  0.33983  0.17967  1.0000
  Au  Au1       1.0  0.25000  0.25000  0.00000  1.0000
  Au  Au2       1.0  0.75000  0.75000  0.00000  1.0000
