data_image0
_chemical_formula_structural       C4Te2
_chemical_formula_sum              "C4 Te2"
_cell_length_a       4.68161
_cell_length_b       4.68161
_cell_length_c       4.68161
_cell_angle_alpha    115.805
_cell_angle_beta     115.805
_cell_angle_gamma    97.4344

_space_group_name_H-M_alt    "P 1"
_space_group_IT_number       1

loop_
  _space_group_symop_operation_xyz
  'x, y, z'

loop_
  _atom_site_type_symbol
  _atom_site_label
  _atom_site_symmetry_multiplicity
  _atom_site_fract_x
  _atom_site_fract_y
  _atom_site_fract_z
  _atom_site_occupancy
  C   C1        1.0  0.90518  0.40518  0.31035  1.0000
  C   C2        1.0  0.40518  0.09482  0.50000  1.0000
  C   C3        1.0  0.09482  0.59482  0.68965  1.0000
  C   C4        1.0  0.59482  0.90518  0.50000  1.0000
  Te  Te1       1.0  0.25000  0.25000  0.00000  1.0000
  Te  Te2       1.0  0.75000  0.75000  0.00000  1.0000
