data_image0
_chemical_formula_structural       Te2Br6
_chemical_formula_sum              "Te2 Br6"
_cell_length_a       5.63144
_cell_length_b       4.45169
_cell_length_c       13.7617
_cell_angle_alpha    90
_cell_angle_beta     90
_cell_angle_gamma    90

_space_group_name_H-M_alt    "P 1"
_space_group_IT_number       1

loop_
  _space_group_symop_operation_xyz
  'x, y, z'

loop_
  _atom_site_type_symbol
  _atom_site_label
  _atom_site_symmetry_multiplicity
  _atom_site_fract_x
  _atom_site_fract_y
  _atom_site_fract_z
  _atom_site_occupancy
  Te  Te1       1.0  0.50000  0.62440  0.50000  1.0000
  Te  Te2       1.0  0.00000  0.37560  0.00000  1.0000
  Br  Br1       1.0  0.50000  0.12323  0.62947  1.0000
  Br  Br2       1.0  0.50000  0.12323  0.37053  1.0000
  Br  Br3       1.0  0.00000  0.87677  0.87053  1.0000
  Br  Br4       1.0  0.00000  0.87677  0.12947  1.0000
  Br  Br5       1.0  0.00000  0.62443  0.50000  1.0000
  Br  Br6       1.0  0.50000  0.37557  0.00000  1.0000
