data_image0
_chemical_formula_structural       Te4Br8
_chemical_formula_sum              "Te4 Br8"
_cell_length_a       12.9599
_cell_length_b       12.9599
_cell_length_c       10.0949
_cell_angle_alpha    90
_cell_angle_beta     90
_cell_angle_gamma    164.068

_space_group_name_H-M_alt    "P 1"
_space_group_IT_number       1

loop_
  _space_group_symop_operation_xyz
  'x, y, z'

loop_
  _atom_site_type_symbol
  _atom_site_label
  _atom_site_symmetry_multiplicity
  _atom_site_fract_x
  _atom_site_fract_y
  _atom_site_fract_z
  _atom_site_occupancy
  Te  Te1       1.0  0.18649  0.81351  0.43582  1.0000
  Te  Te2       1.0  0.81351  0.18649  0.93582  1.0000
  Te  Te3       1.0  0.50335  0.49665  0.65810  1.0000
  Te  Te4       1.0  0.49665  0.50335  0.15810  1.0000
  Br  Br1       1.0  0.71728  0.28272  0.99031  1.0000
  Br  Br2       1.0  0.28272  0.71728  0.49031  1.0000
  Br  Br3       1.0  0.40481  0.59519  0.70701  1.0000
  Br  Br4       1.0  0.59519  0.40481  0.20701  1.0000
  Br  Br5       1.0  0.10637  0.89363  0.61303  1.0000
  Br  Br6       1.0  0.89363  0.10637  0.11303  1.0000
  Br  Br7       1.0  0.98590  0.01410  0.41004  1.0000
  Br  Br8       1.0  0.01410  0.98590  0.91004  1.0000
