data_image0
_chemical_formula_structural       Te4Br12
_chemical_formula_sum              "Te4 Br12"
_cell_length_a       8.17497
_cell_length_b       8.17497
_cell_length_c       8.03297
_cell_angle_alpha    90
_cell_angle_beta     90
_cell_angle_gamma    106.482

_space_group_name_H-M_alt    "P 1"
_space_group_IT_number       1

loop_
  _space_group_symop_operation_xyz
  'x, y, z'

loop_
  _atom_site_type_symbol
  _atom_site_label
  _atom_site_symmetry_multiplicity
  _atom_site_fract_x
  _atom_site_fract_y
  _atom_site_fract_z
  _atom_site_occupancy
  Te  Te1       1.0  0.67770  0.32230  0.00000  1.0000
  Te  Te2       1.0  0.32230  0.67770  0.00000  1.0000
  Te  Te3       1.0  0.17770  0.82230  0.50000  1.0000
  Te  Te4       1.0  0.82230  0.17770  0.50000  1.0000
  Br  Br1       1.0  0.66126  0.66126  0.07493  1.0000
  Br  Br2       1.0  0.16126  0.16126  0.42507  1.0000
  Br  Br3       1.0  0.83874  0.83874  0.57493  1.0000
  Br  Br4       1.0  0.37896  0.62104  0.50000  1.0000
  Br  Br5       1.0  0.03380  0.53380  0.75000  1.0000
  Br  Br6       1.0  0.87896  0.12104  0.00000  1.0000
  Br  Br7       1.0  0.96620  0.46620  0.25000  1.0000
  Br  Br8       1.0  0.33874  0.33874  0.92507  1.0000
  Br  Br9       1.0  0.62104  0.37896  0.50000  1.0000
  Br  Br10      1.0  0.12104  0.87896  0.00000  1.0000
  Br  Br11      1.0  0.46620  0.96620  0.25000  1.0000
  Br  Br12      1.0  0.53380  0.03380  0.75000  1.0000
