data_image0
_chemical_formula_structural       Te10Br6
_chemical_formula_sum              "Te10 Br6"
_cell_length_a       9.33498
_cell_length_b       9.33498
_cell_length_c       9.33498
_cell_angle_alpha    101.298
_cell_angle_beta     101.298
_cell_angle_gamma    127.459

_space_group_name_H-M_alt    "P 1"
_space_group_IT_number       1

loop_
  _space_group_symop_operation_xyz
  'x, y, z'

loop_
  _atom_site_type_symbol
  _atom_site_label
  _atom_site_symmetry_multiplicity
  _atom_site_fract_x
  _atom_site_fract_y
  _atom_site_fract_z
  _atom_site_occupancy
  Te  Te1       1.0  0.53066  0.20323  0.73389  1.0000
  Te  Te2       1.0  0.46934  0.79677  0.26611  1.0000
  Te  Te3       1.0  0.79677  0.53066  0.32743  1.0000
  Te  Te4       1.0  0.20323  0.46934  0.67257  1.0000
  Te  Te5       1.0  0.96934  0.70323  0.67257  1.0000
  Te  Te6       1.0  0.29677  0.96934  0.26611  1.0000
  Te  Te7       1.0  0.25000  0.75000  0.50000  1.0000
  Te  Te8       1.0  0.75000  0.25000  0.50000  1.0000
  Te  Te9       1.0  0.03066  0.29677  0.32743  1.0000
  Te  Te10      1.0  0.70323  0.03066  0.73389  1.0000
  Br  Br1       1.0  0.77980  0.27980  0.05959  1.0000
  Br  Br2       1.0  0.72020  0.77980  0.50000  1.0000
  Br  Br3       1.0  0.27980  0.22020  0.50000  1.0000
  Br  Br4       1.0  0.22020  0.72020  0.94041  1.0000
  Br  Br5       1.0  0.75000  0.75000  0.00000  1.0000
  Br  Br6       1.0  0.25000  0.25000  0.00000  1.0000
