data_image0
_chemical_formula_structural       TeC5
_chemical_formula_sum              "Te1 C5"
_cell_length_a       7.32369
_cell_length_b       7.32369
_cell_length_c       7.32369
_cell_angle_alpha    29.6969
_cell_angle_beta     29.6969
_cell_angle_gamma    29.6969

_space_group_name_H-M_alt    "P 1"
_space_group_IT_number       1

loop_
  _space_group_symop_operation_xyz
  'x, y, z'

loop_
  _atom_site_type_symbol
  _atom_site_label
  _atom_site_symmetry_multiplicity
  _atom_site_fract_x
  _atom_site_fract_y
  _atom_site_fract_z
  _atom_site_occupancy
  Te  Te1       1.0  0.00000  0.00000  0.00000  1.0000
  C   C1        1.0  0.82650  0.82650  0.82650  1.0000
  C   C2        1.0  0.23740  0.50000  0.76260  1.0000
  C   C3        1.0  0.50000  0.76260  0.23740  1.0000
  C   C4        1.0  0.76260  0.23740  0.50000  1.0000
  C   C5        1.0  0.17350  0.17350  0.17350  1.0000
