data_image0
_chemical_formula_structural       Br10Te4
_chemical_formula_sum              "Br10 Te4"
_cell_length_a       13.776
_cell_length_b       13.776
_cell_length_c       9.36356
_cell_angle_alpha    41.5932
_cell_angle_beta     41.5932
_cell_angle_gamma    43.7076

_space_group_name_H-M_alt    "P 1"
_space_group_IT_number       1

loop_
  _space_group_symop_operation_xyz
  'x, y, z'

loop_
  _atom_site_type_symbol
  _atom_site_label
  _atom_site_symmetry_multiplicity
  _atom_site_fract_x
  _atom_site_fract_y
  _atom_site_fract_z
  _atom_site_occupancy
  Br  Br1       1.0  0.32012  0.67988  0.00000  1.0000
  Br  Br2       1.0  0.67988  0.32012  1.00000  1.0000
  Br  Br3       1.0  0.64212  0.64212  0.23753  1.0000
  Br  Br4       1.0  0.35788  0.35788  0.76247  1.0000
  Br  Br5       1.0  0.06681  0.06681  0.52654  1.0000
  Br  Br6       1.0  0.93319  0.93319  0.47346  1.0000
  Br  Br7       1.0  0.39881  0.00367  0.82536  1.0000
  Br  Br8       1.0  0.99633  0.60119  0.17464  1.0000
  Br  Br9       1.0  0.00367  0.39881  0.82536  1.0000
  Br  Br10      1.0  0.60119  0.99633  0.17464  1.0000
  Te  Te1       1.0  0.14316  0.14316  0.09539  1.0000
  Te  Te2       1.0  0.85684  0.85684  0.90461  1.0000
  Te  Te3       1.0  0.56307  0.56307  0.65651  1.0000
  Te  Te4       1.0  0.43693  0.43693  0.34349  1.0000
