data_image0
_chemical_formula_structural       TeBr4
_chemical_formula_sum              "Te1 Br4"
_cell_length_a       9.47325
_cell_length_b       9.47325
_cell_length_c       9.47325
_cell_angle_alpha    30.105
_cell_angle_beta     30.105
_cell_angle_gamma    30.105

_space_group_name_H-M_alt    "P 1"
_space_group_IT_number       1

loop_
  _space_group_symop_operation_xyz
  'x, y, z'

loop_
  _atom_site_type_symbol
  _atom_site_label
  _atom_site_symmetry_multiplicity
  _atom_site_fract_x
  _atom_site_fract_y
  _atom_site_fract_z
  _atom_site_occupancy
  Te  Te1       1.0  0.00000  0.00000  0.00000  1.0000
  Br  Br1       1.0  0.62890  0.62890  0.62890  1.0000
  Br  Br2       1.0  0.16679  0.16679  0.16679  1.0000
  Br  Br3       1.0  0.83321  0.83321  0.83321  1.0000
  Br  Br4       1.0  0.37110  0.37110  0.37110  1.0000
