data_image0
_chemical_formula_structural       Te2Au4
_chemical_formula_sum              "Te2 Au4"
_cell_length_a       5.85112
_cell_length_b       5.85112
_cell_length_c       5.85112
_cell_angle_alpha    121.696
_cell_angle_beta     121.696
_cell_angle_gamma    87.0873

_space_group_name_H-M_alt    "P 1"
_space_group_IT_number       1

loop_
  _space_group_symop_operation_xyz
  'x, y, z'

loop_
  _atom_site_type_symbol
  _atom_site_label
  _atom_site_symmetry_multiplicity
  _atom_site_fract_x
  _atom_site_fract_y
  _atom_site_fract_z
  _atom_site_occupancy
  Te  Te1       1.0  0.75000  0.75000  0.00000  1.0000
  Te  Te2       1.0  0.25000  0.25000  0.00000  1.0000
  Au  Au1       1.0  0.31883  0.18117  0.50000  1.0000
  Au  Au2       1.0  0.81883  0.31883  0.13766  1.0000
  Au  Au3       1.0  0.68117  0.81883  0.50000  1.0000
  Au  Au4       1.0  0.18117  0.68117  0.86234  1.0000
