data_image0
_chemical_formula_structural       Te2C5
_chemical_formula_sum              "Te2 C5"
_cell_length_a       4.10871
_cell_length_b       4.10871
_cell_length_c       9.56682
_cell_angle_alpha    121.529
_cell_angle_beta     121.529
_cell_angle_gamma    50.1371

_space_group_name_H-M_alt    "P 1"
_space_group_IT_number       1

loop_
  _space_group_symop_operation_xyz
  'x, y, z'

loop_
  _atom_site_type_symbol
  _atom_site_label
  _atom_site_symmetry_multiplicity
  _atom_site_fract_x
  _atom_site_fract_y
  _atom_site_fract_z
  _atom_site_occupancy
  Te  Te1       1.0  0.43169  0.43169  0.69435  1.0000
  Te  Te2       1.0  0.56831  0.56831  0.30565  1.0000
  C   C1        1.0  0.07848  0.07848  0.48358  1.0000
  C   C2        1.0  0.11038  0.11038  0.16785  1.0000
  C   C3        1.0  0.88962  0.88962  0.83215  1.0000
  C   C4        1.0  0.92152  0.92152  0.51642  1.0000
  C   C5        1.0  0.00000  0.00000  0.00000  1.0000
