data_image0
_chemical_formula_structural       Au12Te
_chemical_formula_sum              "Au12 Te1"
_cell_length_a       6.89801
_cell_length_b       6.89801
_cell_length_c       6.89801
_cell_angle_alpha    109.471
_cell_angle_beta     109.471
_cell_angle_gamma    109.471

_space_group_name_H-M_alt    "P 1"
_space_group_IT_number       1

loop_
  _space_group_symop_operation_xyz
  'x, y, z'

loop_
  _atom_site_type_symbol
  _atom_site_label
  _atom_site_symmetry_multiplicity
  _atom_site_fract_x
  _atom_site_fract_y
  _atom_site_fract_z
  _atom_site_occupancy
  Au  Au1       1.0  0.67911  0.86446  0.18535  1.0000
  Au  Au2       1.0  0.81465  0.32089  0.13554  1.0000
  Au  Au3       1.0  0.49377  0.81465  0.67911  1.0000
  Au  Au4       1.0  0.81465  0.67911  0.49377  1.0000
  Au  Au5       1.0  0.50623  0.18535  0.32089  1.0000
  Au  Au6       1.0  0.18535  0.67911  0.86446  1.0000
  Au  Au7       1.0  0.86446  0.18535  0.67911  1.0000
  Au  Au8       1.0  0.13554  0.81465  0.32089  1.0000
  Au  Au9       1.0  0.18535  0.32089  0.50623  1.0000
  Au  Au10      1.0  0.67911  0.49377  0.81465  1.0000
  Au  Au11      1.0  0.32089  0.50623  0.18535  1.0000
  Au  Au12      1.0  0.32089  0.13554  0.81465  1.0000
  Te  Te1       1.0  0.00000  0.00000  0.00000  1.0000
