data_image0
_chemical_formula_structural       Br8Te4
_chemical_formula_sum              "Br8 Te4"
_cell_length_a       14.3809
_cell_length_b       11.4918
_cell_length_c       9.37272
_cell_angle_alpha    86.5137
_cell_angle_beta     52.9039
_cell_angle_gamma    40.5825

_space_group_name_H-M_alt    "P 1"
_space_group_IT_number       1

loop_
  _space_group_symop_operation_xyz
  'x, y, z'

loop_
  _atom_site_type_symbol
  _atom_site_label
  _atom_site_symmetry_multiplicity
  _atom_site_fract_x
  _atom_site_fract_y
  _atom_site_fract_z
  _atom_site_occupancy
  Br  Br1       1.0  0.56422  0.93578  0.56422  1.0000
  Br  Br2       1.0  0.93578  0.56422  0.93578  1.0000
  Br  Br3       1.0  0.90323  0.90323  0.09677  1.0000
  Br  Br4       1.0  0.31422  0.68578  0.31422  1.0000
  Br  Br5       1.0  0.09677  0.09677  0.90323  1.0000
  Br  Br6       1.0  0.15323  0.15323  0.34677  1.0000
  Br  Br7       1.0  0.68578  0.31422  0.68578  1.0000
  Br  Br8       1.0  0.34677  0.34677  0.15323  1.0000
  Te  Te1       1.0  0.59639  0.59639  0.90361  1.0000
  Te  Te2       1.0  0.34639  0.34639  0.65361  1.0000
  Te  Te3       1.0  0.90361  0.90361  0.59639  1.0000
  Te  Te4       1.0  0.65361  0.65361  0.34639  1.0000
