data_image0
_chemical_formula_structural       Te2Br4
_chemical_formula_sum              "Te2 Br4"
_cell_length_a       6.12352
_cell_length_b       6.12352
_cell_length_c       6.12352
_cell_angle_alpha    107.602
_cell_angle_beta     107.602
_cell_angle_gamma    113.279

_space_group_name_H-M_alt    "P 1"
_space_group_IT_number       1

loop_
  _space_group_symop_operation_xyz
  'x, y, z'

loop_
  _atom_site_type_symbol
  _atom_site_label
  _atom_site_symmetry_multiplicity
  _atom_site_fract_x
  _atom_site_fract_y
  _atom_site_fract_z
  _atom_site_occupancy
  Te  Te1       1.0  0.25000  0.25000  0.00000  1.0000
  Te  Te2       1.0  0.75000  0.75000  0.00000  1.0000
  Br  Br1       1.0  0.69261  0.19261  0.88522  1.0000
  Br  Br2       1.0  0.30739  0.80739  0.11478  1.0000
  Br  Br3       1.0  0.80739  0.69261  0.50000  1.0000
  Br  Br4       1.0  0.19261  0.30739  0.50000  1.0000
