data_image0
_chemical_formula_structural       TeBr2
_chemical_formula_sum              "Te1 Br2"
_cell_length_a       5.26432
_cell_length_b       5.26432
_cell_length_c       7.45517
_cell_angle_alpha    108.09
_cell_angle_beta     108.09
_cell_angle_gamma    43.9293

_space_group_name_H-M_alt    "P 1"
_space_group_IT_number       1

loop_
  _space_group_symop_operation_xyz
  'x, y, z'

loop_
  _atom_site_type_symbol
  _atom_site_label
  _atom_site_symmetry_multiplicity
  _atom_site_fract_x
  _atom_site_fract_y
  _atom_site_fract_z
  _atom_site_occupancy
  Te  Te1       1.0  0.66239  0.33761  0.50000  1.0000
  Br  Br1       1.0  0.28880  0.95118  0.77414  1.0000
  Br  Br2       1.0  0.04882  0.71120  0.22586  1.0000
