data_image0
_chemical_formula_structural       Te2C2
_chemical_formula_sum              "Te2 C2"
_cell_length_a       3.41201
_cell_length_b       3.41201
_cell_length_c       6.40714
_cell_angle_alpha    90
_cell_angle_beta     90
_cell_angle_gamma    90

_space_group_name_H-M_alt    "P 1"
_space_group_IT_number       1

loop_
  _space_group_symop_operation_xyz
  'x, y, z'

loop_
  _atom_site_type_symbol
  _atom_site_label
  _atom_site_symmetry_multiplicity
  _atom_site_fract_x
  _atom_site_fract_y
  _atom_site_fract_z
  _atom_site_occupancy
  Te  Te1       1.0  0.00000  0.50000  0.70151  1.0000
  Te  Te2       1.0  0.50000  0.00000  0.29849  1.0000
  C   C1        1.0  0.00000  0.50000  0.36306  1.0000
  C   C2        1.0  0.50000  0.00000  0.63694  1.0000
