data_image0
_chemical_formula_structural       Te6Br20
_chemical_formula_sum              "Te6 Br20"
_cell_length_a       18.1458
_cell_length_b       18.1458
_cell_length_c       3.75964
_cell_angle_alpha    90
_cell_angle_beta     90
_cell_angle_gamma    120

_space_group_name_H-M_alt    "P 1"
_space_group_IT_number       1

loop_
  _space_group_symop_operation_xyz
  'x, y, z'

loop_
  _atom_site_type_symbol
  _atom_site_label
  _atom_site_symmetry_multiplicity
  _atom_site_fract_x
  _atom_site_fract_y
  _atom_site_fract_z
  _atom_site_occupancy
  Te  Te1       1.0  0.62326  0.74720  0.25000  1.0000
  Te  Te2       1.0  0.25280  0.87606  0.25000  1.0000
  Te  Te3       1.0  0.12394  0.37674  0.25000  1.0000
  Te  Te4       1.0  0.37674  0.25280  0.75000  1.0000
  Te  Te5       1.0  0.74720  0.12394  0.75000  1.0000
  Te  Te6       1.0  0.87606  0.62326  0.75000  1.0000
  Br  Br1       1.0  0.85492  0.10345  0.25000  1.0000
  Br  Br2       1.0  0.89655  0.75146  0.25000  1.0000
  Br  Br3       1.0  0.24854  0.14508  0.25000  1.0000
  Br  Br4       1.0  0.14508  0.89655  0.75000  1.0000
  Br  Br5       1.0  0.10345  0.24854  0.75000  1.0000
  Br  Br6       1.0  0.75146  0.85492  0.75000  1.0000
  Br  Br7       1.0  0.62340  0.99048  0.25000  1.0000
  Br  Br8       1.0  0.00952  0.63291  0.25000  1.0000
  Br  Br9       1.0  0.36709  0.37660  0.25000  1.0000
  Br  Br10      1.0  0.37660  0.00952  0.75000  1.0000
  Br  Br11      1.0  0.99048  0.36709  0.75000  1.0000
  Br  Br12      1.0  0.63291  0.62340  0.75000  1.0000
  Br  Br13      1.0  0.72383  0.22307  0.25000  1.0000
  Br  Br14      1.0  0.77693  0.50076  0.25000  1.0000
  Br  Br15      1.0  0.49924  0.27617  0.25000  1.0000
  Br  Br16      1.0  0.27617  0.77693  0.75000  1.0000
  Br  Br17      1.0  0.22307  0.49924  0.75000  1.0000
  Br  Br18      1.0  0.50076  0.72383  0.75000  1.0000
  Br  Br19      1.0  0.66667  0.33333  0.75000  1.0000
  Br  Br20      1.0  0.33333  0.66667  0.25000  1.0000
