data_image0
_chemical_formula_structural       Te9Br5
_chemical_formula_sum              "Te9 Br5"
_cell_length_a       13.4926
_cell_length_b       13.4926
_cell_length_c       15.5056
_cell_angle_alpha    35.5239
_cell_angle_beta     35.5239
_cell_angle_gamma    25.6256

_space_group_name_H-M_alt    "P 1"
_space_group_IT_number       1

loop_
  _space_group_symop_operation_xyz
  'x, y, z'

loop_
  _atom_site_type_symbol
  _atom_site_label
  _atom_site_symmetry_multiplicity
  _atom_site_fract_x
  _atom_site_fract_y
  _atom_site_fract_z
  _atom_site_occupancy
  Te  Te1       1.0  0.57180  0.07428  0.32904  1.0000
  Te  Te2       1.0  0.92572  0.42820  0.67096  1.0000
  Te  Te3       1.0  0.28334  0.03274  0.08448  1.0000
  Te  Te4       1.0  0.08319  0.58893  0.34563  1.0000
  Te  Te5       1.0  0.41107  0.91681  0.65437  1.0000
  Te  Te6       1.0  0.71531  0.28469  0.50000  1.0000
  Te  Te7       1.0  0.96726  0.71666  0.91552  1.0000
  Te  Te8       1.0  0.81712  0.49067  0.13764  1.0000
  Te  Te9       1.0  0.50933  0.18288  0.86236  1.0000
  Br  Br1       1.0  0.97402  0.11035  0.62009  1.0000
  Br  Br2       1.0  0.21562  0.78438  0.00000  1.0000
  Br  Br3       1.0  0.88965  0.02598  0.37991  1.0000
  Br  Br4       1.0  0.32366  0.50511  0.53922  1.0000
  Br  Br5       1.0  0.49489  0.67634  0.46078  1.0000
