data_image0
_chemical_formula_structural       Te8C16
_chemical_formula_sum              "Te8 C16"
_cell_length_a       6.50915
_cell_length_b       13.6277
_cell_length_c       5.17373
_cell_angle_alpha    90
_cell_angle_beta     90
_cell_angle_gamma    90

_space_group_name_H-M_alt    "P 1"
_space_group_IT_number       1

loop_
  _space_group_symop_operation_xyz
  'x, y, z'

loop_
  _atom_site_type_symbol
  _atom_site_label
  _atom_site_symmetry_multiplicity
  _atom_site_fract_x
  _atom_site_fract_y
  _atom_site_fract_z
  _atom_site_occupancy
  Te  Te1       1.0  0.66911  0.82796  0.22225  1.0000
  Te  Te2       1.0  0.83089  0.67204  0.72225  1.0000
  Te  Te3       1.0  0.83089  0.32796  0.77775  1.0000
  Te  Te4       1.0  0.66911  0.17204  0.27775  1.0000
  Te  Te5       1.0  0.33089  0.17204  0.77775  1.0000
  Te  Te6       1.0  0.16911  0.32796  0.27775  1.0000
  Te  Te7       1.0  0.16911  0.67204  0.22225  1.0000
  Te  Te8       1.0  0.33089  0.82796  0.72225  1.0000
  C   C1        1.0  0.50583  0.50000  0.25000  1.0000
  C   C2        1.0  0.99417  0.00000  0.75000  1.0000
  C   C3        1.0  0.49417  0.50000  0.75000  1.0000
  C   C4        1.0  0.00583  0.00000  0.25000  1.0000
  C   C5        1.0  0.36419  0.79492  0.32638  1.0000
  C   C6        1.0  0.13581  0.70508  0.82638  1.0000
  C   C7        1.0  0.13581  0.29492  0.67362  1.0000
  C   C8        1.0  0.36419  0.20508  0.17362  1.0000
  C   C9        1.0  0.63581  0.20508  0.67362  1.0000
  C   C10       1.0  0.86419  0.29492  0.17362  1.0000
  C   C11       1.0  0.86419  0.70508  0.32638  1.0000
  C   C12       1.0  0.63581  0.79492  0.82638  1.0000
  C   C13       1.0  0.50000  0.50000  0.00000  1.0000
  C   C14       1.0  0.00000  0.00000  0.50000  1.0000
  C   C15       1.0  0.00000  0.00000  0.00000  1.0000
  C   C16       1.0  0.50000  0.50000  0.50000  1.0000
