data_image0
_chemical_formula_structural       Au8Te4
_chemical_formula_sum              "Au8 Te4"
_cell_length_a       5.37259
_cell_length_b       7.87471
_cell_length_c       7.91135
_cell_angle_alpha    93.4199
_cell_angle_beta     90
_cell_angle_gamma    90

_space_group_name_H-M_alt    "P 1"
_space_group_IT_number       1

loop_
  _space_group_symop_operation_xyz
  'x, y, z'

loop_
  _atom_site_type_symbol
  _atom_site_label
  _atom_site_symmetry_multiplicity
  _atom_site_fract_x
  _atom_site_fract_y
  _atom_site_fract_z
  _atom_site_occupancy
  Au  Au1       1.0  0.08744  0.04945  0.25848  1.0000
  Au  Au2       1.0  0.58744  0.95055  0.24152  1.0000
  Au  Au3       1.0  0.91256  0.95055  0.74152  1.0000
  Au  Au4       1.0  0.41256  0.04945  0.75848  1.0000
  Au  Au5       1.0  0.75010  0.23285  0.51814  1.0000
  Au  Au6       1.0  0.25010  0.76715  0.98186  1.0000
  Au  Au7       1.0  0.24990  0.76715  0.48186  1.0000
  Au  Au8       1.0  0.74990  0.23285  0.01814  1.0000
  Te  Te1       1.0  0.06910  0.29715  0.77274  1.0000
  Te  Te2       1.0  0.56910  0.70285  0.72726  1.0000
  Te  Te3       1.0  0.93090  0.70285  0.22726  1.0000
  Te  Te4       1.0  0.43090  0.29715  0.27274  1.0000
