data_image0
_chemical_formula_structural       Te4Br6
_chemical_formula_sum              "Te4 Br6"
_cell_length_a       8.06235
_cell_length_b       8.06235
_cell_length_c       8.06235
_cell_angle_alpha    111.321
_cell_angle_beta     125.604
_cell_angle_gamma    93.1088

_space_group_name_H-M_alt    "P 1"
_space_group_IT_number       1

loop_
  _space_group_symop_operation_xyz
  'x, y, z'

loop_
  _atom_site_type_symbol
  _atom_site_label
  _atom_site_symmetry_multiplicity
  _atom_site_fract_x
  _atom_site_fract_y
  _atom_site_fract_z
  _atom_site_occupancy
  Te  Te1       1.0  0.68788  0.50002  0.18787  1.0000
  Te  Te2       1.0  0.31212  0.49998  0.81213  1.0000
  Te  Te3       1.0  0.68785  0.99998  0.68787  1.0000
  Te  Te4       1.0  0.31215  0.00002  0.31213  1.0000
  Br  Br1       1.0  0.50052  0.75031  0.75021  1.0000
  Br  Br2       1.0  0.49948  0.24969  0.24979  1.0000
  Br  Br3       1.0  0.00010  0.25031  0.74979  1.0000
  Br  Br4       1.0  0.99990  0.74969  0.25021  1.0000
  Br  Br5       1.0  1.00000  0.75000  0.75000  1.0000
  Br  Br6       1.0  0.00000  0.25000  0.25000  1.0000
