data_image0
_chemical_formula_structural       Te16Br24
_chemical_formula_sum              "Te16 Br24"
_cell_length_a       7.59646
_cell_length_b       9.09537
_cell_length_c       24.257
_cell_angle_alpha    90
_cell_angle_beta     90
_cell_angle_gamma    90

_space_group_name_H-M_alt    "P 1"
_space_group_IT_number       1

loop_
  _space_group_symop_operation_xyz
  'x, y, z'

loop_
  _atom_site_type_symbol
  _atom_site_label
  _atom_site_symmetry_multiplicity
  _atom_site_fract_x
  _atom_site_fract_y
  _atom_site_fract_z
  _atom_site_occupancy
  Te  Te1       1.0  0.73198  0.75000  0.01987  1.0000
  Te  Te2       1.0  0.23198  0.25000  0.48013  1.0000
  Te  Te3       1.0  0.26802  0.25000  0.98013  1.0000
  Te  Te4       1.0  0.76802  0.75000  0.51987  1.0000
  Te  Te5       1.0  0.38122  0.75000  0.06315  1.0000
  Te  Te6       1.0  0.88122  0.25000  0.43685  1.0000
  Te  Te7       1.0  0.61878  0.25000  0.93685  1.0000
  Te  Te8       1.0  0.11878  0.75000  0.56315  1.0000
  Te  Te9       1.0  0.62410  0.50011  0.25251  1.0000
  Te  Te10      1.0  0.12410  0.49989  0.24749  1.0000
  Te  Te11      1.0  0.37590  0.00011  0.74749  1.0000
  Te  Te12      1.0  0.87590  0.99989  0.75251  1.0000
  Te  Te13      1.0  0.37590  0.49989  0.74749  1.0000
  Te  Te14      1.0  0.87590  0.50011  0.75251  1.0000
  Te  Te15      1.0  0.62410  0.99989  0.25251  1.0000
  Te  Te16      1.0  0.12410  0.00011  0.24749  1.0000
  Br  Br1       1.0  0.87432  0.75000  0.25084  1.0000
  Br  Br2       1.0  0.37432  0.25000  0.24916  1.0000
  Br  Br3       1.0  0.12568  0.25000  0.74916  1.0000
  Br  Br4       1.0  0.62568  0.75000  0.75084  1.0000
  Br  Br5       1.0  0.37447  0.75000  0.25051  1.0000
  Br  Br6       1.0  0.87447  0.25000  0.24949  1.0000
  Br  Br7       1.0  0.62553  0.25000  0.74949  1.0000
  Br  Br8       1.0  0.12553  0.75000  0.75051  1.0000
  Br  Br9       1.0  0.86144  0.95858  0.07950  1.0000
  Br  Br10      1.0  0.36144  0.04142  0.42050  1.0000
  Br  Br11      1.0  0.13856  0.45858  0.92050  1.0000
  Br  Br12      1.0  0.63856  0.54142  0.57950  1.0000
  Br  Br13      1.0  0.13856  0.04142  0.92050  1.0000
  Br  Br14      1.0  0.63856  0.95858  0.57950  1.0000
  Br  Br15      1.0  0.86144  0.54142  0.07950  1.0000
  Br  Br16      1.0  0.36144  0.45858  0.42050  1.0000
  Br  Br17      1.0  0.38211  0.04885  0.07202  1.0000
  Br  Br18      1.0  0.88211  0.95115  0.42798  1.0000
  Br  Br19      1.0  0.61789  0.54885  0.92798  1.0000
  Br  Br20      1.0  0.11789  0.45115  0.57202  1.0000
  Br  Br21      1.0  0.61789  0.95115  0.92798  1.0000
  Br  Br22      1.0  0.11789  0.04885  0.57202  1.0000
  Br  Br23      1.0  0.38211  0.45115  0.07202  1.0000
  Br  Br24      1.0  0.88211  0.54885  0.42798  1.0000
