data_image0
_chemical_formula_structural       Br9Te13
_chemical_formula_sum              "Br9 Te13"
_cell_length_a       9.48363
_cell_length_b       9.48363
_cell_length_c       10.8409
_cell_angle_alpha    90
_cell_angle_beta     90
_cell_angle_gamma    120

_space_group_name_H-M_alt    "P 1"
_space_group_IT_number       1

loop_
  _space_group_symop_operation_xyz
  'x, y, z'

loop_
  _atom_site_type_symbol
  _atom_site_label
  _atom_site_symmetry_multiplicity
  _atom_site_fract_x
  _atom_site_fract_y
  _atom_site_fract_z
  _atom_site_occupancy
  Br  Br1       1.0  0.00000  0.00000  0.50000  1.0000
  Br  Br2       1.0  0.33333  0.66667  0.75289  1.0000
  Br  Br3       1.0  0.66667  0.33333  0.24711  1.0000
  Br  Br4       1.0  0.19965  0.80035  0.38910  1.0000
  Br  Br5       1.0  0.19965  0.39931  0.38910  1.0000
  Br  Br6       1.0  0.60069  0.80035  0.38910  1.0000
  Br  Br7       1.0  0.39931  0.19965  0.61090  1.0000
  Br  Br8       1.0  0.80035  0.60069  0.61090  1.0000
  Br  Br9       1.0  0.80035  0.19965  0.61090  1.0000
  Te  Te1       1.0  0.00000  0.00000  0.00000  1.0000
  Te  Te2       1.0  0.50000  0.00000  0.00000  1.0000
  Te  Te3       1.0  0.00000  0.50000  0.00000  1.0000
  Te  Te4       1.0  0.50000  0.50000  0.00000  1.0000
  Te  Te5       1.0  0.50000  0.00000  0.50000  1.0000
  Te  Te6       1.0  0.00000  0.50000  0.50000  1.0000
  Te  Te7       1.0  0.50000  0.50000  0.50000  1.0000
  Te  Te8       1.0  0.16932  0.83068  0.87424  1.0000
  Te  Te9       1.0  0.16932  0.33864  0.87424  1.0000
  Te  Te10      1.0  0.66136  0.83068  0.87424  1.0000
  Te  Te11      1.0  0.33864  0.16932  0.12576  1.0000
  Te  Te12      1.0  0.83068  0.66136  0.12576  1.0000
  Te  Te13      1.0  0.83068  0.16932  0.12576  1.0000
