data_image0
_chemical_formula_structural       Te3C4
_chemical_formula_sum              "Te3 C4"
_cell_length_a       6.99275
_cell_length_b       6.99275
_cell_length_c       6.88393
_cell_angle_alpha    121.835
_cell_angle_beta     121.835
_cell_angle_gamma    27.9994

_space_group_name_H-M_alt    "P 1"
_space_group_IT_number       1

loop_
  _space_group_symop_operation_xyz
  'x, y, z'

loop_
  _atom_site_type_symbol
  _atom_site_label
  _atom_site_symmetry_multiplicity
  _atom_site_fract_x
  _atom_site_fract_y
  _atom_site_fract_z
  _atom_site_occupancy
  Te  Te1       1.0  0.00000  0.00000  0.00000  1.0000
  Te  Te2       1.0  0.79891  0.79891  0.25628  1.0000
  Te  Te3       1.0  0.20109  0.20109  0.74372  1.0000
  C   C1        1.0  0.55513  0.55513  0.57320  1.0000
  C   C2        1.0  0.44487  0.44487  0.42680  1.0000
  C   C3        1.0  0.82273  0.82273  0.96271  1.0000
  C   C4        1.0  0.17727  0.17727  0.03729  1.0000
