data_image0
_chemical_formula_structural       Br8Te4
_chemical_formula_sum              "Br8 Te4"
_cell_length_a       8.96947
_cell_length_b       8.21768
_cell_length_c       12.7441
_cell_angle_alpha    35.2796
_cell_angle_beta     90
_cell_angle_gamma    90

_space_group_name_H-M_alt    "P 1"
_space_group_IT_number       1

loop_
  _space_group_symop_operation_xyz
  'x, y, z'

loop_
  _atom_site_type_symbol
  _atom_site_label
  _atom_site_symmetry_multiplicity
  _atom_site_fract_x
  _atom_site_fract_y
  _atom_site_fract_z
  _atom_site_occupancy
  Br  Br1       1.0  0.50017  0.03900  0.37131  1.0000
  Br  Br2       1.0  0.49983  0.03900  0.87131  1.0000
  Br  Br3       1.0  0.34249  0.49581  0.86398  1.0000
  Br  Br4       1.0  0.15477  0.53049  0.16490  1.0000
  Br  Br5       1.0  0.65751  0.49581  0.36398  1.0000
  Br  Br6       1.0  0.84523  0.53049  0.66490  1.0000
  Br  Br7       1.0  0.00017  0.99018  0.65562  1.0000
  Br  Br8       1.0  0.99983  0.99018  0.15562  1.0000
  Te  Te1       1.0  0.24972  0.01411  0.01410  1.0000
  Te  Te2       1.0  0.75028  0.01411  0.51410  1.0000
  Te  Te3       1.0  0.75077  0.01371  0.01339  1.0000
  Te  Te4       1.0  0.24923  0.01371  0.51339  1.0000
