data_image0
_chemical_formula_structural       Te2F4
_chemical_formula_sum              "Te2 F4"
_cell_length_a       4.63645
_cell_length_b       4.63645
_cell_length_c       4.43823
_cell_angle_alpha    90
_cell_angle_beta     90
_cell_angle_gamma    98.1721

_space_group_name_H-M_alt    "P 1"
_space_group_IT_number       1

loop_
  _space_group_symop_operation_xyz
  'x, y, z'

loop_
  _atom_site_type_symbol
  _atom_site_label
  _atom_site_symmetry_multiplicity
  _atom_site_fract_x
  _atom_site_fract_y
  _atom_site_fract_z
  _atom_site_occupancy
  Te  Te1       1.0  0.16389  0.16389  0.75000  1.0000
  Te  Te2       1.0  0.83611  0.83611  0.25000  1.0000
  F   F1        1.0  0.41368  0.83216  0.75000  1.0000
  F   F2        1.0  0.83216  0.41368  0.75000  1.0000
  F   F3        1.0  0.16784  0.58632  0.25000  1.0000
  F   F4        1.0  0.58632  0.16784  0.25000  1.0000
