data_image0
_chemical_formula_structural       Te16Cl24
_chemical_formula_sum              "Te16 Cl24"
_cell_length_a       6.2351
_cell_length_b       9.99933
_cell_length_c       25.0192
_cell_angle_alpha    90
_cell_angle_beta     90
_cell_angle_gamma    90

_space_group_name_H-M_alt    "P 1"
_space_group_IT_number       1

loop_
  _space_group_symop_operation_xyz
  'x, y, z'

loop_
  _atom_site_type_symbol
  _atom_site_label
  _atom_site_symmetry_multiplicity
  _atom_site_fract_x
  _atom_site_fract_y
  _atom_site_fract_z
  _atom_site_occupancy
  Te  Te1       1.0  0.79152  0.75000  0.04829  1.0000
  Te  Te2       1.0  0.29152  0.25000  0.45171  1.0000
  Te  Te3       1.0  0.20848  0.25000  0.95171  1.0000
  Te  Te4       1.0  0.70848  0.75000  0.54829  1.0000
  Te  Te5       1.0  0.23178  0.75000  0.01837  1.0000
  Te  Te6       1.0  0.73178  0.25000  0.48163  1.0000
  Te  Te7       1.0  0.76822  0.25000  0.98163  1.0000
  Te  Te8       1.0  0.26822  0.75000  0.51837  1.0000
  Te  Te9       1.0  0.75078  0.49909  0.23666  1.0000
  Te  Te10      1.0  0.25078  0.50091  0.26334  1.0000
  Te  Te11      1.0  0.24922  0.99909  0.76334  1.0000
  Te  Te12      1.0  0.74922  0.00091  0.73666  1.0000
  Te  Te13      1.0  0.24922  0.50091  0.76334  1.0000
  Te  Te14      1.0  0.74922  0.49909  0.73666  1.0000
  Te  Te15      1.0  0.75078  0.00091  0.23666  1.0000
  Te  Te16      1.0  0.25078  0.99909  0.26334  1.0000
  Cl  Cl1       1.0  0.75099  0.75000  0.21024  1.0000
  Cl  Cl2       1.0  0.25099  0.25000  0.28976  1.0000
  Cl  Cl3       1.0  0.24901  0.25000  0.78976  1.0000
  Cl  Cl4       1.0  0.74901  0.75000  0.71024  1.0000
  Cl  Cl5       1.0  0.25052  0.75000  0.29276  1.0000
  Cl  Cl6       1.0  0.75052  0.25000  0.20724  1.0000
  Cl  Cl7       1.0  0.74948  0.25000  0.70724  1.0000
  Cl  Cl8       1.0  0.24948  0.75000  0.79276  1.0000
  Cl  Cl9       1.0  0.81763  0.01118  0.05277  1.0000
  Cl  Cl10      1.0  0.31763  0.98882  0.44723  1.0000
  Cl  Cl11      1.0  0.18237  0.51118  0.94723  1.0000
  Cl  Cl12      1.0  0.68237  0.48882  0.55277  1.0000
  Cl  Cl13      1.0  0.18237  0.98882  0.94723  1.0000
  Cl  Cl14      1.0  0.68237  0.01118  0.55277  1.0000
  Cl  Cl15      1.0  0.81763  0.48882  0.05277  1.0000
  Cl  Cl16      1.0  0.31763  0.51118  0.44723  1.0000
  Cl  Cl17      1.0  0.31841  0.91437  0.08337  1.0000
  Cl  Cl18      1.0  0.81841  0.08563  0.41663  1.0000
  Cl  Cl19      1.0  0.68159  0.41437  0.91663  1.0000
  Cl  Cl20      1.0  0.18159  0.58563  0.58337  1.0000
  Cl  Cl21      1.0  0.68159  0.08563  0.91663  1.0000
  Cl  Cl22      1.0  0.18159  0.91437  0.58337  1.0000
  Cl  Cl23      1.0  0.31841  0.58563  0.08337  1.0000
  Cl  Cl24      1.0  0.81841  0.41437  0.41663  1.0000
