data_image0
_chemical_formula_structural       F6Te2
_chemical_formula_sum              "F6 Te2"
_cell_length_a       3.54364
_cell_length_b       5.96103
_cell_length_c       5.3261
_cell_angle_alpha    90
_cell_angle_beta     90
_cell_angle_gamma    90

_space_group_name_H-M_alt    "P 1"
_space_group_IT_number       1

loop_
  _space_group_symop_operation_xyz
  'x, y, z'

loop_
  _atom_site_type_symbol
  _atom_site_label
  _atom_site_symmetry_multiplicity
  _atom_site_fract_x
  _atom_site_fract_y
  _atom_site_fract_z
  _atom_site_occupancy
  F   F1        1.0  0.00000  0.33159  0.26646  1.0000
  F   F2        1.0  0.00000  0.33159  0.73354  1.0000
  F   F3        1.0  0.50000  0.66841  0.23354  1.0000
  F   F4        1.0  0.50000  0.66841  0.76646  1.0000
  F   F5        1.0  0.00000  0.96126  0.50000  1.0000
  F   F6        1.0  0.50000  0.03874  0.00000  1.0000
  Te  Te1       1.0  0.00000  0.77523  0.00000  1.0000
  Te  Te2       1.0  0.50000  0.22477  0.50000  1.0000
