data_image0
_chemical_formula_structural       Te6C4
_chemical_formula_sum              "Te6 C4"
_cell_length_a       7.94257
_cell_length_b       7.94257
_cell_length_c       3.34104
_cell_angle_alpha    90
_cell_angle_beta     90
_cell_angle_gamma    90

_space_group_name_H-M_alt    "P 1"
_space_group_IT_number       1

loop_
  _space_group_symop_operation_xyz
  'x, y, z'

loop_
  _atom_site_type_symbol
  _atom_site_label
  _atom_site_symmetry_multiplicity
  _atom_site_fract_x
  _atom_site_fract_y
  _atom_site_fract_z
  _atom_site_occupancy
  Te  Te1       1.0  0.00000  0.00000  0.00000  1.0000
  Te  Te2       1.0  0.50000  0.50000  0.00000  1.0000
  Te  Te3       1.0  0.15412  0.65412  0.50149  1.0000
  Te  Te4       1.0  0.34588  0.15412  0.49851  1.0000
  Te  Te5       1.0  0.65412  0.84588  0.49851  1.0000
  Te  Te6       1.0  0.84588  0.34588  0.50149  1.0000
  C   C1        1.0  0.27644  0.77644  0.00141  1.0000
  C   C2        1.0  0.22356  0.27644  0.99859  1.0000
  C   C3        1.0  0.77644  0.72356  0.99859  1.0000
  C   C4        1.0  0.72356  0.22356  0.00141  1.0000
