data_image0
_chemical_formula_structural       Te2Cl4
_chemical_formula_sum              "Te2 Cl4"
_cell_length_a       8.36055
_cell_length_b       8.36055
_cell_length_c       3.76454
_cell_angle_alpha    90
_cell_angle_beta     90
_cell_angle_gamma    127.763

_space_group_name_H-M_alt    "P 1"
_space_group_IT_number       1

loop_
  _space_group_symop_operation_xyz
  'x, y, z'

loop_
  _atom_site_type_symbol
  _atom_site_label
  _atom_site_symmetry_multiplicity
  _atom_site_fract_x
  _atom_site_fract_y
  _atom_site_fract_z
  _atom_site_occupancy
  Te  Te1       1.0  0.15841  0.15841  0.75000  1.0000
  Te  Te2       1.0  0.84159  0.84159  0.25000  1.0000
  Cl  Cl1       1.0  0.63727  0.89806  0.75000  1.0000
  Cl  Cl2       1.0  0.89806  0.63727  0.75000  1.0000
  Cl  Cl3       1.0  0.10194  0.36273  0.25000  1.0000
  Cl  Cl4       1.0  0.36273  0.10194  0.25000  1.0000
