data_image0
_chemical_formula_structural       Te7C20
_chemical_formula_sum              "Te7 C20"
_cell_length_a       7.65929
_cell_length_b       7.65929
_cell_length_c       7.65929
_cell_angle_alpha    101.978
_cell_angle_beta     101.978
_cell_angle_gamma    101.978

_space_group_name_H-M_alt    "P 1"
_space_group_IT_number       1

loop_
  _space_group_symop_operation_xyz
  'x, y, z'

loop_
  _atom_site_type_symbol
  _atom_site_label
  _atom_site_symmetry_multiplicity
  _atom_site_fract_x
  _atom_site_fract_y
  _atom_site_fract_z
  _atom_site_occupancy
  Te  Te1       1.0  0.00000  0.00000  0.00000  1.0000
  Te  Te2       1.0  0.45456  0.89889  0.66306  1.0000
  Te  Te3       1.0  0.89889  0.66306  0.45456  1.0000
  Te  Te4       1.0  0.66306  0.45456  0.89889  1.0000
  Te  Te5       1.0  0.54544  0.10111  0.33694  1.0000
  Te  Te6       1.0  0.10111  0.33694  0.54544  1.0000
  Te  Te7       1.0  0.33694  0.54544  0.10111  1.0000
  C   C1        1.0  0.43649  0.43649  0.43649  1.0000
  C   C2        1.0  0.56351  0.56351  0.56351  1.0000
  C   C3        1.0  0.89844  0.24146  0.17394  1.0000
  C   C4        1.0  0.24146  0.17394  0.89844  1.0000
  C   C5        1.0  0.17394  0.89844  0.24146  1.0000
  C   C6        1.0  0.10156  0.75854  0.82606  1.0000
  C   C7        1.0  0.75854  0.82606  0.10156  1.0000
  C   C8        1.0  0.82606  0.10156  0.75854  1.0000
  C   C9        1.0  0.73114  0.22997  0.21099  1.0000
  C   C10       1.0  0.22997  0.21099  0.73114  1.0000
  C   C11       1.0  0.21099  0.73114  0.22997  1.0000
  C   C12       1.0  0.26886  0.77003  0.78901  1.0000
  C   C13       1.0  0.77003  0.78901  0.26886  1.0000
  C   C14       1.0  0.78901  0.26886  0.77003  1.0000
  C   C15       1.0  0.16999  0.80561  0.39877  1.0000
  C   C16       1.0  0.80561  0.39877  0.16999  1.0000
  C   C17       1.0  0.39877  0.16999  0.80561  1.0000
  C   C18       1.0  0.83001  0.19439  0.60123  1.0000
  C   C19       1.0  0.19439  0.60123  0.83001  1.0000
  C   C20       1.0  0.60123  0.83001  0.19439  1.0000
