data_image0
_chemical_formula_structural       C4Te
_chemical_formula_sum              "C4 Te1"
_cell_length_a       13.1979
_cell_length_b       13.1979
_cell_length_c       13.1979
_cell_angle_alpha    11.4576
_cell_angle_beta     11.4576
_cell_angle_gamma    11.4576

_space_group_name_H-M_alt    "P 1"
_space_group_IT_number       1

loop_
  _space_group_symop_operation_xyz
  'x, y, z'

loop_
  _atom_site_type_symbol
  _atom_site_label
  _atom_site_symmetry_multiplicity
  _atom_site_fract_x
  _atom_site_fract_y
  _atom_site_fract_z
  _atom_site_occupancy
  C   C1        1.0  0.55438  0.55438  0.55438  1.0000
  C   C2        1.0  0.22105  0.22105  0.22105  1.0000
  C   C3        1.0  0.77895  0.77895  0.77895  1.0000
  C   C4        1.0  0.44562  0.44562  0.44562  1.0000
  Te  Te1       1.0  0.00000  0.00000  0.00000  1.0000
