data_image0
_chemical_formula_structural       Te4F18
_chemical_formula_sum              "Te4 F18"
_cell_length_a       8.84762
_cell_length_b       7.12686
_cell_length_c       7.02232
_cell_angle_alpha    88.941
_cell_angle_beta     99.2849
_cell_angle_gamma    97.4324

_space_group_name_H-M_alt    "P 1"
_space_group_IT_number       1

loop_
  _space_group_symop_operation_xyz
  'x, y, z'

loop_
  _atom_site_type_symbol
  _atom_site_label
  _atom_site_symmetry_multiplicity
  _atom_site_fract_x
  _atom_site_fract_y
  _atom_site_fract_z
  _atom_site_occupancy
  Te  Te1       1.0  0.00438  0.14133  0.22045  1.0000
  Te  Te2       1.0  0.99562  0.85867  0.77955  1.0000
  Te  Te3       1.0  0.51429  0.32452  0.31574  1.0000
  Te  Te4       1.0  0.48571  0.67548  0.68426  1.0000
  F   F1        1.0  0.91174  0.15798  0.45528  1.0000
  F   F2        1.0  0.08826  0.84202  0.54472  1.0000
  F   F3        1.0  0.28970  0.54048  0.71379  1.0000
  F   F4        1.0  0.71030  0.45952  0.28621  1.0000
  F   F5        1.0  0.54615  0.69890  0.95447  1.0000
  F   F6        1.0  0.45385  0.30110  0.04553  1.0000
  F   F7        1.0  0.93462  0.82692  0.04942  1.0000
  F   F8        1.0  0.06538  0.17308  0.95058  1.0000
  F   F9        1.0  0.30662  0.20275  0.35049  1.0000
  F   F10       1.0  0.69338  0.79725  0.64951  1.0000
  F   F11       1.0  0.55931  0.40120  0.62083  1.0000
  F   F12       1.0  0.44069  0.59880  0.37917  1.0000
  F   F13       1.0  0.19628  0.84716  0.91602  1.0000
  F   F14       1.0  0.80372  0.15284  0.08398  1.0000
  F   F15       1.0  0.95238  0.59278  0.76989  1.0000
  F   F16       1.0  0.04762  0.40722  0.23011  1.0000
  F   F17       1.0  0.58456  0.08587  0.34490  1.0000
  F   F18       1.0  0.41544  0.91413  0.65510  1.0000
