data_image0
_chemical_formula_structural       Cl12Te
_chemical_formula_sum              "Cl12 Te1"
_cell_length_a       8.18139
_cell_length_b       8.18139
_cell_length_c       8.18139
_cell_angle_alpha    109.471
_cell_angle_beta     109.471
_cell_angle_gamma    109.471

_space_group_name_H-M_alt    "P 1"
_space_group_IT_number       1

loop_
  _space_group_symop_operation_xyz
  'x, y, z'

loop_
  _atom_site_type_symbol
  _atom_site_label
  _atom_site_symmetry_multiplicity
  _atom_site_fract_x
  _atom_site_fract_y
  _atom_site_fract_z
  _atom_site_occupancy
  Cl  Cl1       1.0  0.71745  0.84200  0.12454  1.0000
  Cl  Cl2       1.0  0.87546  0.28255  0.15800  1.0000
  Cl  Cl3       1.0  0.59291  0.87546  0.71745  1.0000
  Cl  Cl4       1.0  0.87546  0.71745  0.59291  1.0000
  Cl  Cl5       1.0  0.40709  0.12454  0.28255  1.0000
  Cl  Cl6       1.0  0.12454  0.71745  0.84200  1.0000
  Cl  Cl7       1.0  0.84200  0.12454  0.71745  1.0000
  Cl  Cl8       1.0  0.15800  0.87546  0.28255  1.0000
  Cl  Cl9       1.0  0.12454  0.28255  0.40709  1.0000
  Cl  Cl10      1.0  0.71745  0.59291  0.87546  1.0000
  Cl  Cl11      1.0  0.28255  0.40709  0.12454  1.0000
  Cl  Cl12      1.0  0.28255  0.15800  0.87546  1.0000
  Te  Te1       1.0  0.00000  0.00000  0.00000  1.0000
