data_image0
_chemical_formula_structural       Te2C4
_chemical_formula_sum              "Te2 C4"
_cell_length_a       4.68241
_cell_length_b       4.68241
_cell_length_c       4.68241
_cell_angle_alpha    115.862
_cell_angle_beta     115.862
_cell_angle_gamma    97.3302

_space_group_name_H-M_alt    "P 1"
_space_group_IT_number       1

loop_
  _space_group_symop_operation_xyz
  'x, y, z'

loop_
  _atom_site_type_symbol
  _atom_site_label
  _atom_site_symmetry_multiplicity
  _atom_site_fract_x
  _atom_site_fract_y
  _atom_site_fract_z
  _atom_site_occupancy
  Te  Te1       1.0  0.75000  0.75000  0.00000  1.0000
  Te  Te2       1.0  0.25000  0.25000  0.00000  1.0000
  C   C1        1.0  0.40511  0.09489  0.50000  1.0000
  C   C2        1.0  0.90511  0.40511  0.31023  1.0000
  C   C3        1.0  0.59489  0.90511  0.50000  1.0000
  C   C4        1.0  0.09489  0.59489  0.68977  1.0000
