data_image0
_chemical_formula_structural       Te4Cl8
_chemical_formula_sum              "Te4 Cl8"
_cell_length_a       3.79189
_cell_length_b       8.9517
_cell_length_c       12.4668
_cell_angle_alpha    90
_cell_angle_beta     90
_cell_angle_gamma    90

_space_group_name_H-M_alt    "P 1"
_space_group_IT_number       1

loop_
  _space_group_symop_operation_xyz
  'x, y, z'

loop_
  _atom_site_type_symbol
  _atom_site_label
  _atom_site_symmetry_multiplicity
  _atom_site_fract_x
  _atom_site_fract_y
  _atom_site_fract_z
  _atom_site_occupancy
  Te  Te1       1.0  0.75000  0.83310  0.89527  1.0000
  Te  Te2       1.0  0.75000  0.33310  0.60473  1.0000
  Te  Te3       1.0  0.25000  0.16690  0.10473  1.0000
  Te  Te4       1.0  0.25000  0.66690  0.39527  1.0000
  Cl  Cl1       1.0  0.75000  0.53168  0.28333  1.0000
  Cl  Cl2       1.0  0.75000  0.03168  0.21667  1.0000
  Cl  Cl3       1.0  0.25000  0.46832  0.71667  1.0000
  Cl  Cl4       1.0  0.25000  0.96832  0.78333  1.0000
  Cl  Cl5       1.0  0.75000  0.30108  0.99219  1.0000
  Cl  Cl6       1.0  0.75000  0.80108  0.50781  1.0000
  Cl  Cl7       1.0  0.25000  0.69892  0.00781  1.0000
  Cl  Cl8       1.0  0.25000  0.19892  0.49219  1.0000
