data_image0
_chemical_formula_structural       C3Te3
_chemical_formula_sum              "C3 Te3"
_cell_length_a       3.54232
_cell_length_b       3.54232
_cell_length_c       8.61643
_cell_angle_alpha    90
_cell_angle_beta     90
_cell_angle_gamma    120

_space_group_name_H-M_alt    "P 1"
_space_group_IT_number       1

loop_
  _space_group_symop_operation_xyz
  'x, y, z'

loop_
  _atom_site_type_symbol
  _atom_site_label
  _atom_site_symmetry_multiplicity
  _atom_site_fract_x
  _atom_site_fract_y
  _atom_site_fract_z
  _atom_site_occupancy
  C   C1        1.0  0.33467  0.33467  0.00000  1.0000
  C   C2        1.0  0.00000  0.66533  0.66667  1.0000
  C   C3        1.0  0.66533  0.00000  0.33333  1.0000
  Te  Te1       1.0  0.33478  0.33478  0.50000  1.0000
  Te  Te2       1.0  1.00000  0.66522  0.16667  1.0000
  Te  Te3       1.0  0.66522  1.00000  0.83333  1.0000
