data_image0
_chemical_formula_structural       Te2F4
_chemical_formula_sum              "Te2 F4"
_cell_length_a       2.99819
_cell_length_b       5.72662
_cell_length_c       7.12432
_cell_angle_alpha    90
_cell_angle_beta     90
_cell_angle_gamma    90

_space_group_name_H-M_alt    "P 1"
_space_group_IT_number       1

loop_
  _space_group_symop_operation_xyz
  'x, y, z'

loop_
  _atom_site_type_symbol
  _atom_site_label
  _atom_site_symmetry_multiplicity
  _atom_site_fract_x
  _atom_site_fract_y
  _atom_site_fract_z
  _atom_site_occupancy
  Te  Te1       1.0  0.50000  0.50000  0.50000  1.0000
  Te  Te2       1.0  0.00000  0.00000  0.00000  1.0000
  F   F1        1.0  0.50000  0.22888  0.68612  1.0000
  F   F2        1.0  0.50000  0.77112  0.31388  1.0000
  F   F3        1.0  0.00000  0.27112  0.18612  1.0000
  F   F4        1.0  0.00000  0.72888  0.81388  1.0000
