data_image0
_chemical_formula_structural       Cl6Te2
_chemical_formula_sum              "Cl6 Te2"
_cell_length_a       3.72017
_cell_length_b       7.79583
_cell_length_c       10.007
_cell_angle_alpha    90
_cell_angle_beta     90
_cell_angle_gamma    90

_space_group_name_H-M_alt    "P 1"
_space_group_IT_number       1

loop_
  _space_group_symop_operation_xyz
  'x, y, z'

loop_
  _atom_site_type_symbol
  _atom_site_label
  _atom_site_symmetry_multiplicity
  _atom_site_fract_x
  _atom_site_fract_y
  _atom_site_fract_z
  _atom_site_occupancy
  Cl  Cl1       1.0  0.00000  0.27996  0.31761  1.0000
  Cl  Cl2       1.0  0.00000  0.27996  0.68239  1.0000
  Cl  Cl3       1.0  0.50000  0.72004  0.18239  1.0000
  Cl  Cl4       1.0  0.50000  0.72004  0.81761  1.0000
  Cl  Cl5       1.0  0.00000  0.92294  0.50000  1.0000
  Cl  Cl6       1.0  0.50000  0.07706  0.00000  1.0000
  Te  Te1       1.0  0.00000  0.80047  0.00000  1.0000
  Te  Te2       1.0  0.50000  0.19953  0.50000  1.0000
