data_image0
_chemical_formula_structural       Te7F20
_chemical_formula_sum              "Te7 F20"
_cell_length_a       7.42941
_cell_length_b       7.42941
_cell_length_c       7.42941
_cell_angle_alpha    86.979
_cell_angle_beta     86.979
_cell_angle_gamma    86.979

_space_group_name_H-M_alt    "P 1"
_space_group_IT_number       1

loop_
  _space_group_symop_operation_xyz
  'x, y, z'

loop_
  _atom_site_type_symbol
  _atom_site_label
  _atom_site_symmetry_multiplicity
  _atom_site_fract_x
  _atom_site_fract_y
  _atom_site_fract_z
  _atom_site_occupancy
  Te  Te1       1.0  0.00000  0.00000  0.00000  1.0000
  Te  Te2       1.0  0.49497  0.95005  0.69388  1.0000
  Te  Te3       1.0  0.95005  0.69388  0.49497  1.0000
  Te  Te4       1.0  0.69388  0.49497  0.95005  1.0000
  Te  Te5       1.0  0.50503  0.04995  0.30612  1.0000
  Te  Te6       1.0  0.04995  0.30612  0.50503  1.0000
  Te  Te7       1.0  0.30612  0.50503  0.04995  1.0000
  F   F1        1.0  0.35658  0.35658  0.35658  1.0000
  F   F2        1.0  0.64342  0.64342  0.64342  1.0000
  F   F3        1.0  0.02446  0.33339  0.24190  1.0000
  F   F4        1.0  0.33339  0.24190  0.02446  1.0000
  F   F5        1.0  0.24190  0.02446  0.33339  1.0000
  F   F6        1.0  0.97554  0.66661  0.75810  1.0000
  F   F7        1.0  0.66661  0.75810  0.97554  1.0000
  F   F8        1.0  0.75810  0.97554  0.66661  1.0000
  F   F9        1.0  0.72593  0.19865  0.00384  1.0000
  F   F10       1.0  0.19865  0.00384  0.72593  1.0000
  F   F11       1.0  0.00384  0.72593  0.19865  1.0000
  F   F12       1.0  0.27407  0.80135  0.99616  1.0000
  F   F13       1.0  0.80135  0.99616  0.27407  1.0000
  F   F14       1.0  0.99616  0.27407  0.80135  1.0000
  F   F15       1.0  0.20720  0.71070  0.48838  1.0000
  F   F16       1.0  0.71070  0.48838  0.20720  1.0000
  F   F17       1.0  0.48838  0.20720  0.71070  1.0000
  F   F18       1.0  0.79280  0.28930  0.51162  1.0000
  F   F19       1.0  0.28930  0.51162  0.79280  1.0000
  F   F20       1.0  0.51162  0.79280  0.28930  1.0000
