data_image0
_chemical_formula_structural       Cl10Te4
_chemical_formula_sum              "Cl10 Te4"
_cell_length_a       13.4047
_cell_length_b       13.4047
_cell_length_c       9.81491
_cell_angle_alpha    40.4367
_cell_angle_beta     40.4367
_cell_angle_gamma    41.9451

_space_group_name_H-M_alt    "P 1"
_space_group_IT_number       1

loop_
  _space_group_symop_operation_xyz
  'x, y, z'

loop_
  _atom_site_type_symbol
  _atom_site_label
  _atom_site_symmetry_multiplicity
  _atom_site_fract_x
  _atom_site_fract_y
  _atom_site_fract_z
  _atom_site_occupancy
  Cl  Cl1       1.0  0.33723  0.66277  0.00000  1.0000
  Cl  Cl2       1.0  0.66277  0.33723  0.00000  1.0000
  Cl  Cl3       1.0  0.69330  0.69330  0.18382  1.0000
  Cl  Cl4       1.0  0.30670  0.30670  0.81618  1.0000
  Cl  Cl5       1.0  0.03448  0.03448  0.60967  1.0000
  Cl  Cl6       1.0  0.96552  0.96552  0.39033  1.0000
  Cl  Cl7       1.0  0.34704  0.97201  0.91506  1.0000
  Cl  Cl8       1.0  0.02799  0.65296  0.08494  1.0000
  Cl  Cl9       1.0  0.97201  0.34704  0.91506  1.0000
  Cl  Cl10      1.0  0.65296  0.02799  0.08494  1.0000
  Te  Te1       1.0  0.13375  0.13375  0.11168  1.0000
  Te  Te2       1.0  0.86625  0.86625  0.88832  1.0000
  Te  Te3       1.0  0.58364  0.58364  0.64772  1.0000
  Te  Te4       1.0  0.41636  0.41636  0.35228  1.0000
