data_image0
_chemical_formula_structural       Te8F16
_chemical_formula_sum              "Te8 F16"
_cell_length_a       4.2443
_cell_length_b       5.92287
_cell_length_c       21.3289
_cell_angle_alpha    90
_cell_angle_beta     90
_cell_angle_gamma    90

_space_group_name_H-M_alt    "P 1"
_space_group_IT_number       1

loop_
  _space_group_symop_operation_xyz
  'x, y, z'

loop_
  _atom_site_type_symbol
  _atom_site_label
  _atom_site_symmetry_multiplicity
  _atom_site_fract_x
  _atom_site_fract_y
  _atom_site_fract_z
  _atom_site_occupancy
  Te  Te1       1.0  0.25000  0.05267  0.83828  1.0000
  Te  Te2       1.0  0.75000  0.94733  0.16172  1.0000
  Te  Te3       1.0  0.75000  0.55267  0.66172  1.0000
  Te  Te4       1.0  0.25000  0.44733  0.33828  1.0000
  Te  Te5       1.0  0.25000  0.67817  0.51081  1.0000
  Te  Te6       1.0  0.75000  0.32183  0.48919  1.0000
  Te  Te7       1.0  0.75000  0.17817  0.98919  1.0000
  Te  Te8       1.0  0.25000  0.82183  0.01081  1.0000
  F   F1        1.0  0.25000  0.73069  0.92097  1.0000
  F   F2        1.0  0.75000  0.26931  0.07903  1.0000
  F   F3        1.0  0.75000  0.23069  0.57903  1.0000
  F   F4        1.0  0.25000  0.76931  0.42097  1.0000
  F   F5        1.0  0.25000  0.17225  0.28999  1.0000
  F   F6        1.0  0.75000  0.82775  0.71001  1.0000
  F   F7        1.0  0.75000  0.67225  0.21001  1.0000
  F   F8        1.0  0.25000  0.32775  0.78999  1.0000
  F   F9        1.0  0.25000  0.35364  0.00710  1.0000
  F   F10       1.0  0.75000  0.64636  0.99290  1.0000
  F   F11       1.0  0.75000  0.85364  0.49290  1.0000
  F   F12       1.0  0.25000  0.14636  0.50710  1.0000
  F   F13       1.0  0.25000  0.92778  0.16725  1.0000
  F   F14       1.0  0.75000  0.07222  0.83275  1.0000
  F   F15       1.0  0.75000  0.42778  0.33275  1.0000
  F   F16       1.0  0.25000  0.57222  0.66725  1.0000
