data_image0
_chemical_formula_structural       TeF4
_chemical_formula_sum              "Te1 F4"
_cell_length_a       4.40967
_cell_length_b       4.40967
_cell_length_c       4.40967
_cell_angle_alpha    105.82
_cell_angle_beta     105.82
_cell_angle_gamma    117.049

_space_group_name_H-M_alt    "P 1"
_space_group_IT_number       1

loop_
  _space_group_symop_operation_xyz
  'x, y, z'

loop_
  _atom_site_type_symbol
  _atom_site_label
  _atom_site_symmetry_multiplicity
  _atom_site_fract_x
  _atom_site_fract_y
  _atom_site_fract_z
  _atom_site_occupancy
  Te  Te1       1.0  0.00000  0.00000  0.00000  1.0000
  F   F1        1.0  0.66867  0.81542  0.48409  1.0000
  F   F2        1.0  0.33133  0.18458  0.51591  1.0000
  F   F3        1.0  0.18458  0.66867  0.85325  1.0000
  F   F4        1.0  0.81542  0.33133  0.14675  1.0000
