data_image0
_chemical_formula_structural       Te12Cl4
_chemical_formula_sum              "Te12 Cl4"
_cell_length_a       8.96391
_cell_length_b       8.96391
_cell_length_c       8.96391
_cell_angle_alpha    103.978
_cell_angle_beta     103.978
_cell_angle_gamma    121.125

_space_group_name_H-M_alt    "P 1"
_space_group_IT_number       1

loop_
  _space_group_symop_operation_xyz
  'x, y, z'

loop_
  _atom_site_type_symbol
  _atom_site_label
  _atom_site_symmetry_multiplicity
  _atom_site_fract_x
  _atom_site_fract_y
  _atom_site_fract_z
  _atom_site_occupancy
  Te  Te1       1.0  0.21759  0.50000  0.71759  1.0000
  Te  Te2       1.0  0.50000  0.78241  0.28241  1.0000
  Te  Te3       1.0  0.50000  0.21759  0.71759  1.0000
  Te  Te4       1.0  0.78241  0.50000  0.28241  1.0000
  Te  Te5       1.0  0.19724  0.19724  0.80487  1.0000
  Te  Te6       1.0  0.60763  0.80276  0.00000  1.0000
  Te  Te7       1.0  0.80276  0.60763  0.00000  1.0000
  Te  Te8       1.0  0.39237  0.39237  0.19513  1.0000
  Te  Te9       1.0  0.53442  0.53442  0.61445  1.0000
  Te  Te10      1.0  0.08002  0.46558  0.00000  1.0000
  Te  Te11      1.0  0.46558  0.08002  0.00000  1.0000
  Te  Te12      1.0  0.91998  0.91998  0.38555  1.0000
  Cl  Cl1       1.0  0.66029  0.00000  0.66029  1.0000
  Cl  Cl2       1.0  0.00000  0.33971  0.33971  1.0000
  Cl  Cl3       1.0  0.00000  0.66029  0.66029  1.0000
  Cl  Cl4       1.0  0.33971  0.00000  0.33971  1.0000
