data_image0
_chemical_formula_structural       Te10Cl6
_chemical_formula_sum              "Te10 Cl6"
_cell_length_a       9.08941
_cell_length_b       9.08941
_cell_length_c       9.08941
_cell_angle_alpha    101.61
_cell_angle_beta     101.61
_cell_angle_gamma    126.691

_space_group_name_H-M_alt    "P 1"
_space_group_IT_number       1

loop_
  _space_group_symop_operation_xyz
  'x, y, z'

loop_
  _atom_site_type_symbol
  _atom_site_label
  _atom_site_symmetry_multiplicity
  _atom_site_fract_x
  _atom_site_fract_y
  _atom_site_fract_z
  _atom_site_occupancy
  Te  Te1       1.0  0.53495  0.20940  0.74435  1.0000
  Te  Te2       1.0  0.46505  0.79060  0.25565  1.0000
  Te  Te3       1.0  0.79060  0.53495  0.32555  1.0000
  Te  Te4       1.0  0.20940  0.46505  0.67445  1.0000
  Te  Te5       1.0  0.96505  0.70940  0.67445  1.0000
  Te  Te6       1.0  0.29060  0.96505  0.25565  1.0000
  Te  Te7       1.0  0.25000  0.75000  0.50000  1.0000
  Te  Te8       1.0  0.75000  0.25000  0.50000  1.0000
  Te  Te9       1.0  0.03495  0.29060  0.32555  1.0000
  Te  Te10      1.0  0.70940  0.03495  0.74435  1.0000
  Cl  Cl1       1.0  0.78423  0.28423  0.06846  1.0000
  Cl  Cl2       1.0  0.71577  0.78423  0.50000  1.0000
  Cl  Cl3       1.0  0.28423  0.21577  0.50000  1.0000
  Cl  Cl4       1.0  0.21577  0.71577  0.93154  1.0000
  Cl  Cl5       1.0  0.75000  0.75000  0.00000  1.0000
  Cl  Cl6       1.0  0.25000  0.25000  0.00000  1.0000
