data_image0
_chemical_formula_structural       Te2C6
_chemical_formula_sum              "Te2 C6"
_cell_length_a       6.86378
_cell_length_b       3.71363
_cell_length_c       5.56747
_cell_angle_alpha    90
_cell_angle_beta     90
_cell_angle_gamma    90

_space_group_name_H-M_alt    "P 1"
_space_group_IT_number       1

loop_
  _space_group_symop_operation_xyz
  'x, y, z'

loop_
  _atom_site_type_symbol
  _atom_site_label
  _atom_site_symmetry_multiplicity
  _atom_site_fract_x
  _atom_site_fract_y
  _atom_site_fract_z
  _atom_site_occupancy
  Te  Te1       1.0  0.50000  0.46561  0.50000  1.0000
  Te  Te2       1.0  0.00000  0.53439  0.00000  1.0000
  C   C1        1.0  0.00000  0.89870  0.50000  1.0000
  C   C2        1.0  0.50000  0.10130  0.00000  1.0000
  C   C3        1.0  0.00000  0.92934  0.73304  1.0000
  C   C4        1.0  0.50000  0.07066  0.76696  1.0000
  C   C5        1.0  0.00000  0.92934  0.26696  1.0000
  C   C6        1.0  0.50000  0.07066  0.23304  1.0000
