data_image0
_chemical_formula_structural       Te4F8
_chemical_formula_sum              "Te4 F8"
_cell_length_a       8.94917
_cell_length_b       8.94917
_cell_length_c       7.89531
_cell_angle_alpha    90
_cell_angle_beta     90
_cell_angle_gamma    159.555

_space_group_name_H-M_alt    "P 1"
_space_group_IT_number       1

loop_
  _space_group_symop_operation_xyz
  'x, y, z'

loop_
  _atom_site_type_symbol
  _atom_site_label
  _atom_site_symmetry_multiplicity
  _atom_site_fract_x
  _atom_site_fract_y
  _atom_site_fract_z
  _atom_site_occupancy
  Te  Te1       1.0  0.53290  0.46710  0.71378  1.0000
  Te  Te2       1.0  0.46710  0.53290  0.21378  1.0000
  Te  Te3       1.0  0.21876  0.78124  0.20973  1.0000
  Te  Te4       1.0  0.78124  0.21876  0.70973  1.0000
  F   F1        1.0  0.00063  0.99937  0.96256  1.0000
  F   F2        1.0  0.99937  0.00063  0.46256  1.0000
  F   F3        1.0  0.19379  0.80621  0.96386  1.0000
  F   F4        1.0  0.80621  0.19379  0.46386  1.0000
  F   F5        1.0  0.32632  0.67368  0.11633  1.0000
  F   F6        1.0  0.67368  0.32632  0.61633  1.0000
  F   F7        1.0  0.57934  0.42066  0.21943  1.0000
  F   F8        1.0  0.42066  0.57934  0.71943  1.0000
