data_image0
_chemical_formula_structural       Te3F4
_chemical_formula_sum              "Te3 F4"
_cell_length_a       7.2066
_cell_length_b       7.2066
_cell_length_c       7.2593
_cell_angle_alpha    64.0407
_cell_angle_beta     64.0407
_cell_angle_gamma    26.9774

_space_group_name_H-M_alt    "P 1"
_space_group_IT_number       1

loop_
  _space_group_symop_operation_xyz
  'x, y, z'

loop_
  _atom_site_type_symbol
  _atom_site_label
  _atom_site_symmetry_multiplicity
  _atom_site_fract_x
  _atom_site_fract_y
  _atom_site_fract_z
  _atom_site_occupancy
  Te  Te1       1.0  0.00000  0.00000  0.00000  1.0000
  Te  Te2       1.0  0.23318  0.23318  0.72464  1.0000
  Te  Te3       1.0  0.76682  0.76682  0.27536  1.0000
  F   F1        1.0  0.07376  0.07376  0.67072  1.0000
  F   F2        1.0  0.92624  0.92624  0.32928  1.0000
  F   F3        1.0  0.65819  0.65819  0.17130  1.0000
  F   F4        1.0  0.34181  0.34181  0.82870  1.0000
