data_image0
_chemical_formula_structural       Te6F20
_chemical_formula_sum              "Te6 F20"
_cell_length_a       11.0631
_cell_length_b       11.0631
_cell_length_c       3.7025
_cell_angle_alpha    90
_cell_angle_beta     90
_cell_angle_gamma    120

_space_group_name_H-M_alt    "P 1"
_space_group_IT_number       1

loop_
  _space_group_symop_operation_xyz
  'x, y, z'

loop_
  _atom_site_type_symbol
  _atom_site_label
  _atom_site_symmetry_multiplicity
  _atom_site_fract_x
  _atom_site_fract_y
  _atom_site_fract_z
  _atom_site_occupancy
  Te  Te1       1.0  0.59988  0.84335  0.25000  1.0000
  Te  Te2       1.0  0.15665  0.75654  0.25000  1.0000
  Te  Te3       1.0  0.24346  0.40012  0.25000  1.0000
  Te  Te4       1.0  0.40012  0.15665  0.75000  1.0000
  Te  Te5       1.0  0.84335  0.24346  0.75000  1.0000
  Te  Te6       1.0  0.75654  0.59988  0.75000  1.0000
  F   F1        1.0  0.92153  0.18127  0.25000  1.0000
  F   F2        1.0  0.81873  0.74026  0.25000  1.0000
  F   F3        1.0  0.25974  0.07847  0.25000  1.0000
  F   F4        1.0  0.07847  0.81873  0.75000  1.0000
  F   F5        1.0  0.18127  0.25974  0.75000  1.0000
  F   F6        1.0  0.74026  0.92153  0.75000  1.0000
  F   F7        1.0  0.64258  0.03504  0.25000  1.0000
  F   F8        1.0  0.96496  0.60754  0.25000  1.0000
  F   F9        1.0  0.39246  0.35742  0.25000  1.0000
  F   F10       1.0  0.35742  0.96496  0.75000  1.0000
  F   F11       1.0  0.03504  0.39246  0.75000  1.0000
  F   F12       1.0  0.60754  0.64258  0.75000  1.0000
  F   F13       1.0  0.83983  0.34251  0.25000  1.0000
  F   F14       1.0  0.65749  0.49732  0.25000  1.0000
  F   F15       1.0  0.50268  0.16017  0.25000  1.0000
  F   F16       1.0  0.16017  0.65749  0.75000  1.0000
  F   F17       1.0  0.34251  0.50268  0.75000  1.0000
  F   F18       1.0  0.49732  0.83983  0.75000  1.0000
  F   F19       1.0  0.66667  0.33333  0.75000  1.0000
  F   F20       1.0  0.33333  0.66667  0.25000  1.0000
