data_image0
_chemical_formula_structural       Te2F4
_chemical_formula_sum              "Te2 F4"
_cell_length_a       5.10035
_cell_length_b       5.10035
_cell_length_c       5.10035
_cell_angle_alpha    108.288
_cell_angle_beta     108.288
_cell_angle_gamma    111.864

_space_group_name_H-M_alt    "P 1"
_space_group_IT_number       1

loop_
  _space_group_symop_operation_xyz
  'x, y, z'

loop_
  _atom_site_type_symbol
  _atom_site_label
  _atom_site_symmetry_multiplicity
  _atom_site_fract_x
  _atom_site_fract_y
  _atom_site_fract_z
  _atom_site_occupancy
  Te  Te1       1.0  0.25000  0.25000  0.00000  1.0000
  Te  Te2       1.0  0.75000  0.75000  0.00000  1.0000
  F   F1        1.0  0.70039  0.20039  0.90078  1.0000
  F   F2        1.0  0.29961  0.79961  0.09922  1.0000
  F   F3        1.0  0.79961  0.70039  0.50000  1.0000
  F   F4        1.0  0.20039  0.29961  0.50000  1.0000
