data_image0
_chemical_formula_structural       Te4F8
_chemical_formula_sum              "Te4 F8"
_cell_length_a       3.80357
_cell_length_b       5.29941
_cell_length_c       9.80986
_cell_angle_alpha    90
_cell_angle_beta     90
_cell_angle_gamma    90

_space_group_name_H-M_alt    "P 1"
_space_group_IT_number       1

loop_
  _space_group_symop_operation_xyz
  'x, y, z'

loop_
  _atom_site_type_symbol
  _atom_site_label
  _atom_site_symmetry_multiplicity
  _atom_site_fract_x
  _atom_site_fract_y
  _atom_site_fract_z
  _atom_site_occupancy
  Te  Te1       1.0  0.75000  0.75537  0.83085  1.0000
  Te  Te2       1.0  0.75000  0.25537  0.66915  1.0000
  Te  Te3       1.0  0.25000  0.24463  0.16915  1.0000
  Te  Te4       1.0  0.25000  0.74463  0.33085  1.0000
  F   F1        1.0  0.75000  0.74181  0.20756  1.0000
  F   F2        1.0  0.75000  0.24181  0.29244  1.0000
  F   F3        1.0  0.25000  0.25819  0.79244  1.0000
  F   F4        1.0  0.25000  0.75819  0.70756  1.0000
  F   F5        1.0  0.75000  0.24978  0.04030  1.0000
  F   F6        1.0  0.75000  0.74978  0.45970  1.0000
  F   F7        1.0  0.25000  0.75022  0.95970  1.0000
  F   F8        1.0  0.25000  0.25022  0.54030  1.0000
