data_image0
_chemical_formula_structural       Te3Hg4
_chemical_formula_sum              "Te3 Hg4"
_cell_length_a       8.03769
_cell_length_b       8.03769
_cell_length_c       7.22293
_cell_angle_alpha    66.0407
_cell_angle_beta     66.0407
_cell_angle_gamma    32.0345

_space_group_name_H-M_alt    "P 1"
_space_group_IT_number       1

loop_
  _space_group_symop_operation_xyz
  'x, y, z'

loop_
  _atom_site_type_symbol
  _atom_site_label
  _atom_site_symmetry_multiplicity
  _atom_site_fract_x
  _atom_site_fract_y
  _atom_site_fract_z
  _atom_site_occupancy
  Te  Te1       1.0  0.00000  0.00000  0.00000  1.0000
  Te  Te2       1.0  0.29434  0.29434  0.70309  1.0000
  Te  Te3       1.0  0.70566  0.70566  0.29691  1.0000
  Hg  Hg1       1.0  0.08731  0.08731  0.54206  1.0000
  Hg  Hg2       1.0  0.91269  0.91269  0.45794  1.0000
  Hg  Hg3       1.0  0.64469  0.64469  0.96367  1.0000
  Hg  Hg4       1.0  0.35531  0.35531  0.03633  1.0000
