data_image0
_chemical_formula_structural       Hg10Te4
_chemical_formula_sum              "Hg10 Te4"
_cell_length_a       10.3073
_cell_length_b       10.3073
_cell_length_c       7.02986
_cell_angle_alpha    73.1979
_cell_angle_beta     73.1979
_cell_angle_gamma    40.1694

_space_group_name_H-M_alt    "P 1"
_space_group_IT_number       1

loop_
  _space_group_symop_operation_xyz
  'x, y, z'

loop_
  _atom_site_type_symbol
  _atom_site_label
  _atom_site_symmetry_multiplicity
  _atom_site_fract_x
  _atom_site_fract_y
  _atom_site_fract_z
  _atom_site_occupancy
  Hg  Hg1       1.0  0.22826  0.77174  0.00000  1.0000
  Hg  Hg2       1.0  0.77174  0.22826  0.00000  1.0000
  Hg  Hg3       1.0  0.57466  0.57466  0.22334  1.0000
  Hg  Hg4       1.0  0.42534  0.42534  0.77666  1.0000
  Hg  Hg5       1.0  0.06885  0.06885  0.58721  1.0000
  Hg  Hg6       1.0  0.93115  0.93115  0.41279  1.0000
  Hg  Hg7       1.0  0.48788  0.98578  0.76037  1.0000
  Hg  Hg8       1.0  0.01422  0.51212  0.23963  1.0000
  Hg  Hg9       1.0  0.98578  0.48788  0.76037  1.0000
  Hg  Hg10      1.0  0.51212  0.01422  0.23963  1.0000
  Te  Te1       1.0  0.16031  0.16031  0.08963  1.0000
  Te  Te2       1.0  0.83969  0.83969  0.91037  1.0000
  Te  Te3       1.0  0.65883  0.65883  0.56132  1.0000
  Te  Te4       1.0  0.34117  0.34117  0.43868  1.0000
