data_image0
_chemical_formula_structural       Hg9Te13
_chemical_formula_sum              "Hg9 Te13"
_cell_length_a       8.9304
_cell_length_b       8.9304
_cell_length_c       10.3543
_cell_angle_alpha    90
_cell_angle_beta     90
_cell_angle_gamma    120

_space_group_name_H-M_alt    "P 1"
_space_group_IT_number       1

loop_
  _space_group_symop_operation_xyz
  'x, y, z'

loop_
  _atom_site_type_symbol
  _atom_site_label
  _atom_site_symmetry_multiplicity
  _atom_site_fract_x
  _atom_site_fract_y
  _atom_site_fract_z
  _atom_site_occupancy
  Hg  Hg1       1.0  0.00000  0.00000  0.50000  1.0000
  Hg  Hg2       1.0  0.33333  0.66667  0.66080  1.0000
  Hg  Hg3       1.0  0.66667  0.33333  0.33920  1.0000
  Hg  Hg4       1.0  0.16943  0.83057  0.33428  1.0000
  Hg  Hg5       1.0  0.16943  0.33886  0.33428  1.0000
  Hg  Hg6       1.0  0.66114  0.83057  0.33428  1.0000
  Hg  Hg7       1.0  0.33886  0.16943  0.66572  1.0000
  Hg  Hg8       1.0  0.83057  0.66114  0.66572  1.0000
  Hg  Hg9       1.0  0.83057  0.16943  0.66572  1.0000
  Te  Te1       1.0  0.00000  0.00000  0.00000  1.0000
  Te  Te2       1.0  0.50000  0.00000  0.00000  1.0000
  Te  Te3       1.0  0.00000  0.50000  0.00000  1.0000
  Te  Te4       1.0  0.50000  0.50000  0.00000  1.0000
  Te  Te5       1.0  0.50000  0.00000  0.50000  1.0000
  Te  Te6       1.0  0.00000  0.50000  0.50000  1.0000
  Te  Te7       1.0  0.50000  0.50000  0.50000  1.0000
  Te  Te8       1.0  0.16905  0.83095  0.83532  1.0000
  Te  Te9       1.0  0.16905  0.33810  0.83532  1.0000
  Te  Te10      1.0  0.66190  0.83095  0.83532  1.0000
  Te  Te11      1.0  0.33810  0.16905  0.16468  1.0000
  Te  Te12      1.0  0.83095  0.66190  0.16468  1.0000
  Te  Te13      1.0  0.83095  0.16905  0.16468  1.0000
