data_image0
_chemical_formula_structural       Te16Hg24
_chemical_formula_sum              "Te16 Hg24"
_cell_length_a       8.88059
_cell_length_b       8.59712
_cell_length_c       17.6106
_cell_angle_alpha    90
_cell_angle_beta     90
_cell_angle_gamma    90

_space_group_name_H-M_alt    "P 1"
_space_group_IT_number       1

loop_
  _space_group_symop_operation_xyz
  'x, y, z'

loop_
  _atom_site_type_symbol
  _atom_site_label
  _atom_site_symmetry_multiplicity
  _atom_site_fract_x
  _atom_site_fract_y
  _atom_site_fract_z
  _atom_site_occupancy
  Te  Te1       1.0  0.88383  0.75000  0.97643  1.0000
  Te  Te2       1.0  0.38383  0.25000  0.52357  1.0000
  Te  Te3       1.0  0.11617  0.25000  0.02357  1.0000
  Te  Te4       1.0  0.61617  0.75000  0.47643  1.0000
  Te  Te5       1.0  0.38230  0.75000  0.97528  1.0000
  Te  Te6       1.0  0.88230  0.25000  0.52472  1.0000
  Te  Te7       1.0  0.61770  0.25000  0.02472  1.0000
  Te  Te8       1.0  0.11770  0.75000  0.47528  1.0000
  Te  Te9       1.0  0.86074  0.49883  0.25053  1.0000
  Te  Te10      1.0  0.36074  0.50117  0.24947  1.0000
  Te  Te11      1.0  0.13926  0.99883  0.74947  1.0000
  Te  Te12      1.0  0.63926  0.00117  0.75053  1.0000
  Te  Te13      1.0  0.13926  0.50117  0.74947  1.0000
  Te  Te14      1.0  0.63926  0.49883  0.75053  1.0000
  Te  Te15      1.0  0.86074  0.00117  0.25053  1.0000
  Te  Te16      1.0  0.36074  0.99883  0.24947  1.0000
  Hg  Hg1       1.0  0.10827  0.75000  0.25038  1.0000
  Hg  Hg2       1.0  0.60827  0.25000  0.24962  1.0000
  Hg  Hg3       1.0  0.89173  0.25000  0.74962  1.0000
  Hg  Hg4       1.0  0.39173  0.75000  0.75038  1.0000
  Hg  Hg5       1.0  0.61117  0.75000  0.24865  1.0000
  Hg  Hg6       1.0  0.11117  0.25000  0.25135  1.0000
  Hg  Hg7       1.0  0.38883  0.25000  0.75135  1.0000
  Hg  Hg8       1.0  0.88883  0.75000  0.74865  1.0000
  Hg  Hg9       1.0  0.86795  0.02637  0.08250  1.0000
  Hg  Hg10      1.0  0.36795  0.97363  0.41750  1.0000
  Hg  Hg11      1.0  0.13205  0.52637  0.91750  1.0000
  Hg  Hg12      1.0  0.63205  0.47363  0.58250  1.0000
  Hg  Hg13      1.0  0.13205  0.97363  0.91750  1.0000
  Hg  Hg14      1.0  0.63205  0.02637  0.58250  1.0000
  Hg  Hg15      1.0  0.86795  0.47363  0.08250  1.0000
  Hg  Hg16      1.0  0.36795  0.52637  0.41750  1.0000
  Hg  Hg17      1.0  0.36835  0.02750  0.08132  1.0000
  Hg  Hg18      1.0  0.86835  0.97250  0.41868  1.0000
  Hg  Hg19      1.0  0.63165  0.52750  0.91868  1.0000
  Hg  Hg20      1.0  0.13165  0.47250  0.58132  1.0000
  Hg  Hg21      1.0  0.63165  0.97250  0.91868  1.0000
  Hg  Hg22      1.0  0.13165  0.02750  0.58132  1.0000
  Hg  Hg23      1.0  0.36835  0.47250  0.08132  1.0000
  Hg  Hg24      1.0  0.86835  0.52750  0.41868  1.0000
