data_image0
_chemical_formula_structural       Te6Hg8
_chemical_formula_sum              "Te6 Hg8"
_cell_length_a       8.91967
_cell_length_b       8.91967
_cell_length_c       8.91967
_cell_angle_alpha    60
_cell_angle_beta     60
_cell_angle_gamma    60

_space_group_name_H-M_alt    "P 1"
_space_group_IT_number       1

loop_
  _space_group_symop_operation_xyz
  'x, y, z'

loop_
  _atom_site_type_symbol
  _atom_site_label
  _atom_site_symmetry_multiplicity
  _atom_site_fract_x
  _atom_site_fract_y
  _atom_site_fract_z
  _atom_site_occupancy
  Te  Te1       1.0  0.50000  0.50000  0.50000  1.0000
  Te  Te2       1.0  0.12500  0.12500  0.62500  1.0000
  Te  Te3       1.0  0.12500  0.12500  0.12500  1.0000
  Te  Te4       1.0  0.12500  0.62500  0.12500  1.0000
  Te  Te5       1.0  0.75000  0.75000  0.75000  1.0000
  Te  Te6       1.0  0.62500  0.12500  0.12500  1.0000
  Hg  Hg1       1.0  0.88429  0.88429  0.88429  1.0000
  Hg  Hg2       1.0  0.88429  0.88429  0.34712  1.0000
  Hg  Hg3       1.0  0.36571  0.36571  0.36571  1.0000
  Hg  Hg4       1.0  0.36571  0.36571  0.90288  1.0000
  Hg  Hg5       1.0  0.88429  0.34712  0.88429  1.0000
  Hg  Hg6       1.0  0.36571  0.90288  0.36571  1.0000
  Hg  Hg7       1.0  0.90288  0.36571  0.36571  1.0000
  Hg  Hg8       1.0  0.34712  0.88429  0.88429  1.0000
