data_image0
_chemical_formula_structural       Te4F8
_chemical_formula_sum              "Te4 F8"
_cell_length_a       3.80894
_cell_length_b       5.3582
_cell_length_c       9.57386
_cell_angle_alpha    90
_cell_angle_beta     90
_cell_angle_gamma    90

_space_group_name_H-M_alt    "P 1"
_space_group_IT_number       1

loop_
  _space_group_symop_operation_xyz
  'x, y, z'

loop_
  _atom_site_type_symbol
  _atom_site_label
  _atom_site_symmetry_multiplicity
  _atom_site_fract_x
  _atom_site_fract_y
  _atom_site_fract_z
  _atom_site_occupancy
  Te  Te1       1.0  0.75000  0.75208  0.16944  1.0000
  Te  Te2       1.0  0.25000  0.24792  0.83056  1.0000
  Te  Te3       1.0  0.75000  0.25208  0.33056  1.0000
  Te  Te4       1.0  0.25000  0.74792  0.66944  1.0000
  F   F1        1.0  0.75000  0.74846  0.79579  1.0000
  F   F2        1.0  0.25000  0.25154  0.20421  1.0000
  F   F3        1.0  0.75000  0.24846  0.70421  1.0000
  F   F4        1.0  0.25000  0.75154  0.29579  1.0000
  F   F5        1.0  0.75000  0.24865  0.96179  1.0000
  F   F6        1.0  0.25000  0.75135  0.03821  1.0000
  F   F7        1.0  0.75000  0.74865  0.53821  1.0000
  F   F8        1.0  0.25000  0.25135  0.46179  1.0000
