data_image0
_chemical_formula_structural       Te4F4
_chemical_formula_sum              "Te4 F4"
_cell_length_a       5.47034
_cell_length_b       5.47034
_cell_length_c       5.47034
_cell_angle_alpha    90
_cell_angle_beta     90
_cell_angle_gamma    90

_space_group_name_H-M_alt    "P 1"
_space_group_IT_number       1

loop_
  _space_group_symop_operation_xyz
  'x, y, z'

loop_
  _atom_site_type_symbol
  _atom_site_label
  _atom_site_symmetry_multiplicity
  _atom_site_fract_x
  _atom_site_fract_y
  _atom_site_fract_z
  _atom_site_occupancy
  Te  Te1       1.0  0.89866  0.60134  0.39866  1.0000
  Te  Te2       1.0  0.60134  0.39866  0.89866  1.0000
  Te  Te3       1.0  0.39866  0.89866  0.60134  1.0000
  Te  Te4       1.0  0.10134  0.10134  0.10134  1.0000
  F   F1        1.0  0.11973  0.38027  0.61973  1.0000
  F   F2        1.0  0.38027  0.61973  0.11973  1.0000
  F   F3        1.0  0.61973  0.11973  0.38027  1.0000
  F   F4        1.0  0.88027  0.88027  0.88027  1.0000
