data_image0
_chemical_formula_structural       TeF4
_chemical_formula_sum              "Te1 F4"
_cell_length_a       4.25902
_cell_length_b       4.25902
_cell_length_c       4.25902
_cell_angle_alpha    99.6147
_cell_angle_beta     99.6147
_cell_angle_gamma    131.756

_space_group_name_H-M_alt    "P 1"
_space_group_IT_number       1

loop_
  _space_group_symop_operation_xyz
  'x, y, z'

loop_
  _atom_site_type_symbol
  _atom_site_label
  _atom_site_symmetry_multiplicity
  _atom_site_fract_x
  _atom_site_fract_y
  _atom_site_fract_z
  _atom_site_occupancy
  Te  Te1       1.0  0.00000  0.00000  0.00000  1.0000
  F   F1        1.0  0.60459  0.22131  0.82590  1.0000
  F   F2        1.0  0.39541  0.77869  0.17410  1.0000
  F   F3        1.0  0.77869  0.60459  0.38327  1.0000
  F   F4        1.0  0.22131  0.39541  0.61673  1.0000
