data_image0
_chemical_formula_structural       Te3Hg4
_chemical_formula_sum              "Te3 Hg4"
_cell_length_a       8.26695
_cell_length_b       8.26695
_cell_length_c       7.5518
_cell_angle_alpha    63.4825
_cell_angle_beta     63.4825
_cell_angle_gamma    31.0265

_space_group_name_H-M_alt    "P 1"
_space_group_IT_number       1

loop_
  _space_group_symop_operation_xyz
  'x, y, z'

loop_
  _atom_site_type_symbol
  _atom_site_label
  _atom_site_symmetry_multiplicity
  _atom_site_fract_x
  _atom_site_fract_y
  _atom_site_fract_z
  _atom_site_occupancy
  Te  Te1       1.0  0.20647  0.20647  0.78715  1.0000
  Te  Te2       1.0  0.79353  0.79353  0.21285  1.0000
  Te  Te3       1.0  0.50000  0.50000  0.50000  1.0000
  Hg  Hg1       1.0  0.86150  0.86150  0.51573  1.0000
  Hg  Hg2       1.0  0.13850  0.13850  0.48427  1.0000
  Hg  Hg3       1.0  0.38356  0.38356  0.93810  1.0000
  Hg  Hg4       1.0  0.61644  0.61644  0.06190  1.0000
