data_image0
_chemical_formula_structural       Te2Hg4
_chemical_formula_sum              "Te2 Hg4"
_cell_length_a       4.68003
_cell_length_b       5.94782
_cell_length_c       7.26683
_cell_angle_alpha    90
_cell_angle_beta     90
_cell_angle_gamma    90

_space_group_name_H-M_alt    "P 1"
_space_group_IT_number       1

loop_
  _space_group_symop_operation_xyz
  'x, y, z'

loop_
  _atom_site_type_symbol
  _atom_site_label
  _atom_site_symmetry_multiplicity
  _atom_site_fract_x
  _atom_site_fract_y
  _atom_site_fract_z
  _atom_site_occupancy
  Te  Te1       1.0  0.00000  0.00000  0.00000  1.0000
  Te  Te2       1.0  0.50000  0.50000  0.50000  1.0000
  Hg  Hg1       1.0  0.00000  0.19663  0.38193  1.0000
  Hg  Hg2       1.0  0.00000  0.80337  0.61807  1.0000
  Hg  Hg3       1.0  0.50000  0.69663  0.11807  1.0000
  Hg  Hg4       1.0  0.50000  0.30337  0.88193  1.0000
