data_image0
_chemical_formula_structural       Te2F4
_chemical_formula_sum              "Te2 F4"
_cell_length_a       2.99224
_cell_length_b       5.83477
_cell_length_c       7.11508
_cell_angle_alpha    90
_cell_angle_beta     90
_cell_angle_gamma    90

_space_group_name_H-M_alt    "P 1"
_space_group_IT_number       1

loop_
  _space_group_symop_operation_xyz
  'x, y, z'

loop_
  _atom_site_type_symbol
  _atom_site_label
  _atom_site_symmetry_multiplicity
  _atom_site_fract_x
  _atom_site_fract_y
  _atom_site_fract_z
  _atom_site_occupancy
  Te  Te1       1.0  0.00000  0.00000  0.00000  1.0000
  Te  Te2       1.0  0.50000  0.50000  0.50000  1.0000
  F   F1        1.0  0.00000  0.23656  0.21134  1.0000
  F   F2        1.0  0.00000  0.76344  0.78866  1.0000
  F   F3        1.0  0.50000  0.73656  0.28866  1.0000
  F   F4        1.0  0.50000  0.26344  0.71134  1.0000
