data_image0
_chemical_formula_structural       Hg8Te4
_chemical_formula_sum              "Hg8 Te4"
_cell_length_a       15.8241
_cell_length_b       14.9601
_cell_length_c       6.10865
_cell_angle_alpha    86.6388
_cell_angle_beta     70.6945
_cell_angle_gamma    22.6667

_space_group_name_H-M_alt    "P 1"
_space_group_IT_number       1

loop_
  _space_group_symop_operation_xyz
  'x, y, z'

loop_
  _atom_site_type_symbol
  _atom_site_label
  _atom_site_symmetry_multiplicity
  _atom_site_fract_x
  _atom_site_fract_y
  _atom_site_fract_z
  _atom_site_occupancy
  Hg  Hg1       1.0  0.62843  0.87157  0.62843  1.0000
  Hg  Hg2       1.0  0.87157  0.62843  0.87157  1.0000
  Hg  Hg3       1.0  0.91130  0.91130  0.08870  1.0000
  Hg  Hg4       1.0  0.37843  0.62157  0.37843  1.0000
  Hg  Hg5       1.0  0.08870  0.08870  0.91130  1.0000
  Hg  Hg6       1.0  0.16130  0.16130  0.33870  1.0000
  Hg  Hg7       1.0  0.62157  0.37843  0.62157  1.0000
  Hg  Hg8       1.0  0.33870  0.33870  0.16130  1.0000
  Te  Te1       1.0  0.57623  0.57623  0.92377  1.0000
  Te  Te2       1.0  0.32623  0.32623  0.67377  1.0000
  Te  Te3       1.0  0.92377  0.92377  0.57623  1.0000
  Te  Te4       1.0  0.67377  0.67377  0.32623  1.0000
