data_image0
_chemical_formula_structural       TeF2
_chemical_formula_sum              "Te1 F2"
_cell_length_a       3.7977
_cell_length_b       3.7977
_cell_length_c       5.01136
_cell_angle_alpha    111.328
_cell_angle_beta     111.328
_cell_angle_gamma    59.3409

_space_group_name_H-M_alt    "P 1"
_space_group_IT_number       1

loop_
  _space_group_symop_operation_xyz
  'x, y, z'

loop_
  _atom_site_type_symbol
  _atom_site_label
  _atom_site_symmetry_multiplicity
  _atom_site_fract_x
  _atom_site_fract_y
  _atom_site_fract_z
  _atom_site_occupancy
  Te  Te1       1.0  0.73139  0.26861  0.50000  1.0000
  F   F1        1.0  0.23760  0.96899  0.79228  1.0000
  F   F2        1.0  0.03101  0.76240  0.20772  1.0000
