data_image0
_chemical_formula_structural       Te4Hg18
_chemical_formula_sum              "Te4 Hg18"
_cell_length_a       8.40258
_cell_length_b       9.35255
_cell_length_c       9.54898
_cell_angle_alpha    102.847
_cell_angle_beta     86.8586
_cell_angle_gamma    85.5293

_space_group_name_H-M_alt    "P 1"
_space_group_IT_number       1

loop_
  _space_group_symop_operation_xyz
  'x, y, z'

loop_
  _atom_site_type_symbol
  _atom_site_label
  _atom_site_symmetry_multiplicity
  _atom_site_fract_x
  _atom_site_fract_y
  _atom_site_fract_z
  _atom_site_occupancy
  Te  Te1       1.0  0.09251  0.00645  0.11923  1.0000
  Te  Te2       1.0  0.90749  0.99355  0.88077  1.0000
  Te  Te3       1.0  0.41549  0.37365  0.49264  1.0000
  Te  Te4       1.0  0.58451  0.62635  0.50736  1.0000
  Hg  Hg1       1.0  0.91241  0.23137  0.46520  1.0000
  Hg  Hg2       1.0  0.08759  0.76863  0.53480  1.0000
  Hg  Hg3       1.0  0.19808  0.53058  0.74733  1.0000
  Hg  Hg4       1.0  0.80192  0.46942  0.25267  1.0000
  Hg  Hg5       1.0  0.65213  0.77843  0.95112  1.0000
  Hg  Hg6       1.0  0.34787  0.22157  0.04888  1.0000
  Hg  Hg7       1.0  0.88991  0.75435  0.19694  1.0000
  Hg  Hg8       1.0  0.11009  0.24565  0.80306  1.0000
  Hg  Hg9       1.0  0.26172  0.03947  0.44740  1.0000
  Hg  Hg10      1.0  0.73828  0.96053  0.55260  1.0000
  Hg  Hg11      1.0  0.63126  0.31872  0.75278  1.0000
  Hg  Hg12      1.0  0.36874  0.68128  0.24722  1.0000
  Hg  Hg13      1.0  0.30904  0.74476  0.95889  1.0000
  Hg  Hg14      1.0  0.69096  0.25524  0.04111  1.0000
  Hg  Hg15      1.0  0.86107  0.55881  0.69611  1.0000
  Hg  Hg16      1.0  0.13893  0.44119  0.30389  1.0000
  Hg  Hg17      1.0  0.60103  0.03603  0.25565  1.0000
  Hg  Hg18      1.0  0.39897  0.96397  0.74435  1.0000
