data_image0
_chemical_formula_structural       F3Te3
_chemical_formula_sum              "F3 Te3"
_cell_length_a       4.90937
_cell_length_b       4.90937
_cell_length_c       5.97524
_cell_angle_alpha    90
_cell_angle_beta     90
_cell_angle_gamma    120

_space_group_name_H-M_alt    "P 1"
_space_group_IT_number       1

loop_
  _space_group_symop_operation_xyz
  'x, y, z'

loop_
  _atom_site_type_symbol
  _atom_site_label
  _atom_site_symmetry_multiplicity
  _atom_site_fract_x
  _atom_site_fract_y
  _atom_site_fract_z
  _atom_site_occupancy
  F   F1        1.0  0.23457  0.23457  0.00000  1.0000
  F   F2        1.0  1.00000  0.76543  0.66667  1.0000
  F   F3        1.0  0.76543  1.00000  0.33333  1.0000
  Te  Te1       1.0  0.51577  0.51577  0.50000  1.0000
  Te  Te2       1.0  1.00000  0.48423  0.16667  1.0000
  Te  Te3       1.0  0.48423  1.00000  0.83333  1.0000
