data_image0
_chemical_formula_structural       Te2F6
_chemical_formula_sum              "Te2 F6"
_cell_length_a       5.03012
_cell_length_b       5.14014
_cell_length_c       5.14816
_cell_angle_alpha    90
_cell_angle_beta     90
_cell_angle_gamma    90

_space_group_name_H-M_alt    "P 1"
_space_group_IT_number       1

loop_
  _space_group_symop_operation_xyz
  'x, y, z'

loop_
  _atom_site_type_symbol
  _atom_site_label
  _atom_site_symmetry_multiplicity
  _atom_site_fract_x
  _atom_site_fract_y
  _atom_site_fract_z
  _atom_site_occupancy
  Te  Te1       1.0  0.50000  0.40433  0.50000  1.0000
  Te  Te2       1.0  0.00000  0.59567  0.00000  1.0000
  F   F1        1.0  0.50000  0.12756  0.74456  1.0000
  F   F2        1.0  0.50000  0.12756  0.25544  1.0000
  F   F3        1.0  0.00000  0.87244  0.75544  1.0000
  F   F4        1.0  0.00000  0.87244  0.24456  1.0000
  F   F5        1.0  0.00000  0.39797  0.50000  1.0000
  F   F6        1.0  0.50000  0.60203  0.00000  1.0000
