data_image0
_chemical_formula_structural       Te3F4
_chemical_formula_sum              "Te3 F4"
_cell_length_a       7.14839
_cell_length_b       7.14839
_cell_length_c       7.36358
_cell_angle_alpha    64.4927
_cell_angle_beta     64.4927
_cell_angle_gamma    27.2127

_space_group_name_H-M_alt    "P 1"
_space_group_IT_number       1

loop_
  _space_group_symop_operation_xyz
  'x, y, z'

loop_
  _atom_site_type_symbol
  _atom_site_label
  _atom_site_symmetry_multiplicity
  _atom_site_fract_x
  _atom_site_fract_y
  _atom_site_fract_z
  _atom_site_occupancy
  Te  Te1       1.0  0.26657  0.26657  0.77436  1.0000
  Te  Te2       1.0  0.73343  0.73343  0.22564  1.0000
  Te  Te3       1.0  0.50000  0.50000  0.50000  1.0000
  F   F1        1.0  0.84359  0.84359  0.32759  1.0000
  F   F2        1.0  0.15641  0.15641  0.67241  1.0000
  F   F3        1.0  0.42793  0.42793  0.82394  1.0000
  F   F4        1.0  0.57207  0.57207  0.17606  1.0000
