data_image0
_chemical_formula_structural       F10Te6
_chemical_formula_sum              "F10 Te6"
_cell_length_a       7.16657
_cell_length_b       7.16657
_cell_length_c       7.16657
_cell_angle_alpha    113.016
_cell_angle_beta     113.016
_cell_angle_gamma    102.592

_space_group_name_H-M_alt    "P 1"
_space_group_IT_number       1

loop_
  _space_group_symop_operation_xyz
  'x, y, z'

loop_
  _atom_site_type_symbol
  _atom_site_label
  _atom_site_symmetry_multiplicity
  _atom_site_fract_x
  _atom_site_fract_y
  _atom_site_fract_z
  _atom_site_occupancy
  F   F1        1.0  0.49355  0.71281  0.50000  1.0000
  F   F2        1.0  0.50645  0.28719  0.50000  1.0000
  F   F3        1.0  0.50000  0.50000  0.00000  1.0000
  F   F4        1.0  0.00000  0.00000  0.00000  1.0000
  F   F5        1.0  0.21281  0.99355  0.50000  1.0000
  F   F6        1.0  0.99355  0.49355  0.78074  1.0000
  F   F7        1.0  0.71281  0.21281  0.21926  1.0000
  F   F8        1.0  0.28719  0.78719  0.78074  1.0000
  F   F9        1.0  0.00645  0.50645  0.21926  1.0000
  F   F10       1.0  0.78719  0.00645  0.50000  1.0000
  Te  Te1       1.0  0.88410  0.61590  0.50000  1.0000
  Te  Te2       1.0  0.61590  0.11590  0.73180  1.0000
  Te  Te3       1.0  0.38410  0.88410  0.26820  1.0000
  Te  Te4       1.0  0.11590  0.38410  0.50000  1.0000
  Te  Te5       1.0  0.25000  0.25000  0.00000  1.0000
  Te  Te6       1.0  0.75000  0.75000  0.00000  1.0000
