data_image0
_chemical_formula_structural       Te4F8
_chemical_formula_sum              "Te4 F8"
_cell_length_a       8.59574
_cell_length_b       8.59574
_cell_length_c       12.7002
_cell_angle_alpha    44.994
_cell_angle_beta     44.994
_cell_angle_gamma    20.3946

_space_group_name_H-M_alt    "P 1"
_space_group_IT_number       1

loop_
  _space_group_symop_operation_xyz
  'x, y, z'

loop_
  _atom_site_type_symbol
  _atom_site_label
  _atom_site_symmetry_multiplicity
  _atom_site_fract_x
  _atom_site_fract_y
  _atom_site_fract_z
  _atom_site_occupancy
  Te  Te1       1.0  0.72405  0.72405  0.82955  1.0000
  Te  Te2       1.0  0.27595  0.27595  0.17045  1.0000
  Te  Te3       1.0  0.40968  0.40968  0.28960  1.0000
  Te  Te4       1.0  0.59032  0.59032  0.71040  1.0000
  F   F1        1.0  0.03604  0.03604  0.07267  1.0000
  F   F2        1.0  0.96396  0.96396  0.92733  1.0000
  F   F3        1.0  0.87825  0.87825  0.63192  1.0000
  F   F4        1.0  0.12175  0.12175  0.36808  1.0000
  F   F5        1.0  0.54067  0.54067  0.25358  1.0000
  F   F6        1.0  0.45933  0.45933  0.74642  1.0000
  F   F7        1.0  0.31290  0.31290  0.51012  1.0000
  F   F8        1.0  0.68710  0.68710  0.48988  1.0000
