data_image0
_chemical_formula_structural       Te2I4
_chemical_formula_sum              "Te2 I4"
_cell_length_a       3.97057
_cell_length_b       3.97057
_cell_length_c       34.2533
_cell_angle_alpha    90
_cell_angle_beta     90
_cell_angle_gamma    120

_space_group_name_H-M_alt    "P 1"
_space_group_IT_number       1

loop_
  _space_group_symop_operation_xyz
  'x, y, z'

loop_
  _atom_site_type_symbol
  _atom_site_label
  _atom_site_symmetry_multiplicity
  _atom_site_fract_x
  _atom_site_fract_y
  _atom_site_fract_z
  _atom_site_occupancy
  Te  Te1       1.0  0.66667  0.33333  0.15173  1.0000
  Te  Te2       1.0  0.33333  0.66667  0.84827  1.0000
  I   I1        1.0  0.33333  0.66667  0.21901  1.0000
  I   I2        1.0  0.66667  0.33333  0.91550  1.0000
  I   I3        1.0  0.33333  0.66667  0.08450  1.0000
  I   I4        1.0  0.66667  0.33333  0.78099  1.0000
