data_image0
_chemical_formula_structural       Te2I4
_chemical_formula_sum              "Te2 I4"
_cell_length_a       6.61356
_cell_length_b       6.61356
_cell_length_c       6.61356
_cell_angle_alpha    109.48
_cell_angle_beta     109.48
_cell_angle_gamma    109.454

_space_group_name_H-M_alt    "P 1"
_space_group_IT_number       1

loop_
  _space_group_symop_operation_xyz
  'x, y, z'

loop_
  _atom_site_type_symbol
  _atom_site_label
  _atom_site_symmetry_multiplicity
  _atom_site_fract_x
  _atom_site_fract_y
  _atom_site_fract_z
  _atom_site_occupancy
  Te  Te1       1.0  0.75000  0.75000  0.00000  1.0000
  Te  Te2       1.0  0.25000  0.25000  0.00000  1.0000
  I   I1        1.0  0.71365  0.21365  0.92730  1.0000
  I   I2        1.0  0.21365  0.28635  0.50000  1.0000
  I   I3        1.0  0.78635  0.71365  0.50000  1.0000
  I   I4        1.0  0.28635  0.78635  0.07270  1.0000
