data_image0
_chemical_formula_structural       Te16I24
_chemical_formula_sum              "Te16 I24"
_cell_length_a       9.34979
_cell_length_b       8.37228
_cell_length_c       24.0328
_cell_angle_alpha    90
_cell_angle_beta     90
_cell_angle_gamma    90

_space_group_name_H-M_alt    "P 1"
_space_group_IT_number       1

loop_
  _space_group_symop_operation_xyz
  'x, y, z'

loop_
  _atom_site_type_symbol
  _atom_site_label
  _atom_site_symmetry_multiplicity
  _atom_site_fract_x
  _atom_site_fract_y
  _atom_site_fract_z
  _atom_site_occupancy
  Te  Te1       1.0  0.99952  0.75000  0.00037  1.0000
  Te  Te2       1.0  0.49952  0.25000  0.49963  1.0000
  Te  Te3       1.0  0.00048  0.25000  0.99963  1.0000
  Te  Te4       1.0  0.50048  0.75000  0.50037  1.0000
  Te  Te5       1.0  0.50038  0.75000  0.99961  1.0000
  Te  Te6       1.0  0.00038  0.25000  0.50039  1.0000
  Te  Te7       1.0  0.49962  0.25000  0.00039  1.0000
  Te  Te8       1.0  0.99962  0.75000  0.49961  1.0000
  Te  Te9       1.0  0.64336  0.50023  0.25728  1.0000
  Te  Te10      1.0  0.14336  0.49977  0.24272  1.0000
  Te  Te11      1.0  0.35664  0.00023  0.74272  1.0000
  Te  Te12      1.0  0.85664  0.99977  0.75728  1.0000
  Te  Te13      1.0  0.35664  0.49977  0.74272  1.0000
  Te  Te14      1.0  0.85664  0.50023  0.75728  1.0000
  Te  Te15      1.0  0.64336  0.99977  0.25728  1.0000
  Te  Te16      1.0  0.14336  0.00023  0.24272  1.0000
  I   I1        1.0  0.89328  0.75000  0.25033  1.0000
  I   I2        1.0  0.39328  0.25000  0.24967  1.0000
  I   I3        1.0  0.10672  0.25000  0.74967  1.0000
  I   I4        1.0  0.60672  0.75000  0.75033  1.0000
  I   I5        1.0  0.39342  0.75000  0.24990  1.0000
  I   I6        1.0  0.89342  0.25000  0.25010  1.0000
  I   I7        1.0  0.60658  0.25000  0.75010  1.0000
  I   I8        1.0  0.10658  0.75000  0.74990  1.0000
  I   I9        1.0  0.88433  0.00158  0.07627  1.0000
  I   I10       1.0  0.38433  0.99842  0.42373  1.0000
  I   I11       1.0  0.11567  0.50158  0.92373  1.0000
  I   I12       1.0  0.61567  0.49842  0.57627  1.0000
  I   I13       1.0  0.11567  0.99842  0.92373  1.0000
  I   I14       1.0  0.61567  0.00158  0.57627  1.0000
  I   I15       1.0  0.88433  0.49842  0.07627  1.0000
  I   I16       1.0  0.38433  0.50158  0.42373  1.0000
  I   I17       1.0  0.38467  0.00075  0.07708  1.0000
  I   I18       1.0  0.88467  0.99925  0.42292  1.0000
  I   I19       1.0  0.61533  0.50075  0.92292  1.0000
  I   I20       1.0  0.11533  0.49925  0.57708  1.0000
  I   I21       1.0  0.61533  0.99925  0.92292  1.0000
  I   I22       1.0  0.11533  0.00075  0.57708  1.0000
  I   I23       1.0  0.38467  0.49925  0.07708  1.0000
  I   I24       1.0  0.88467  0.50075  0.42292  1.0000
