data_image0
_chemical_formula_structural       Te3I4
_chemical_formula_sum              "Te3 I4"
_cell_length_a       12.5684
_cell_length_b       12.5684
_cell_length_c       16.4397
_cell_angle_alpha    28.0113
_cell_angle_beta     28.0113
_cell_angle_gamma    19.6504

_space_group_name_H-M_alt    "P 1"
_space_group_IT_number       1

loop_
  _space_group_symop_operation_xyz
  'x, y, z'

loop_
  _atom_site_type_symbol
  _atom_site_label
  _atom_site_symmetry_multiplicity
  _atom_site_fract_x
  _atom_site_fract_y
  _atom_site_fract_z
  _atom_site_occupancy
  Te  Te1       1.0  0.00000  0.00000  0.00000  1.0000
  Te  Te2       1.0  0.22425  0.22425  0.79149  1.0000
  Te  Te3       1.0  0.77575  0.77575  0.20851  1.0000
  I   I1        1.0  0.14952  0.14952  0.48055  1.0000
  I   I2        1.0  0.85048  0.85048  0.51945  1.0000
  I   I3        1.0  0.63892  0.63892  0.02684  1.0000
  I   I4        1.0  0.36108  0.36108  0.97316  1.0000
