data_image0
_chemical_formula_structural       Te6I4
_chemical_formula_sum              "Te6 I4"
_cell_length_a       7.12615
_cell_length_b       7.12615
_cell_length_c       9.10136
_cell_angle_alpha    90
_cell_angle_beta     90
_cell_angle_gamma    90

_space_group_name_H-M_alt    "P 1"
_space_group_IT_number       1

loop_
  _space_group_symop_operation_xyz
  'x, y, z'

loop_
  _atom_site_type_symbol
  _atom_site_label
  _atom_site_symmetry_multiplicity
  _atom_site_fract_x
  _atom_site_fract_y
  _atom_site_fract_z
  _atom_site_occupancy
  Te  Te1       1.0  0.00000  0.00000  0.00000  1.0000
  Te  Te2       1.0  0.50000  0.50000  0.00000  1.0000
  Te  Te3       1.0  0.18376  0.68376  0.83708  1.0000
  Te  Te4       1.0  0.31624  0.18376  0.16292  1.0000
  Te  Te5       1.0  0.68376  0.81624  0.16292  1.0000
  Te  Te6       1.0  0.81624  0.31624  0.83708  1.0000
  I   I1        1.0  0.30270  0.80270  0.32079  1.0000
  I   I2        1.0  0.19730  0.30270  0.67921  1.0000
  I   I3        1.0  0.80270  0.69730  0.67921  1.0000
  I   I4        1.0  0.69730  0.19730  0.32079  1.0000
