data_image0
_chemical_formula_structural       I6Te2
_chemical_formula_sum              "I6 Te2"
_cell_length_a       3.88825
_cell_length_b       10.7356
_cell_length_c       10.7861
_cell_angle_alpha    90
_cell_angle_beta     90
_cell_angle_gamma    90

_space_group_name_H-M_alt    "P 1"
_space_group_IT_number       1

loop_
  _space_group_symop_operation_xyz
  'x, y, z'

loop_
  _atom_site_type_symbol
  _atom_site_label
  _atom_site_symmetry_multiplicity
  _atom_site_fract_x
  _atom_site_fract_y
  _atom_site_fract_z
  _atom_site_occupancy
  I   I1        1.0  0.00000  0.31042  0.30793  1.0000
  I   I2        1.0  0.00000  0.31042  0.69207  1.0000
  I   I3        1.0  0.50000  0.68958  0.19207  1.0000
  I   I4        1.0  0.50000  0.68958  0.80793  1.0000
  I   I5        1.0  0.00000  0.97318  0.50000  1.0000
  I   I6        1.0  0.50000  0.02682  0.00000  1.0000
  Te  Te1       1.0  0.00000  0.80388  0.00000  1.0000
  Te  Te2       1.0  0.50000  0.19612  0.50000  1.0000
