data_image0
_chemical_formula_structural       Hg4Te2
_chemical_formula_sum              "Hg4 Te2"
_cell_length_a       6.1556
_cell_length_b       6.1556
_cell_length_c       6.1556
_cell_angle_alpha    108.256
_cell_angle_beta     108.256
_cell_angle_gamma    111.93

_space_group_name_H-M_alt    "P 1"
_space_group_IT_number       1

loop_
  _space_group_symop_operation_xyz
  'x, y, z'

loop_
  _atom_site_type_symbol
  _atom_site_label
  _atom_site_symmetry_multiplicity
  _atom_site_fract_x
  _atom_site_fract_y
  _atom_site_fract_z
  _atom_site_occupancy
  Hg  Hg1       1.0  0.36016  0.86016  0.22032  1.0000
  Hg  Hg2       1.0  0.13984  0.36016  0.50000  1.0000
  Hg  Hg3       1.0  0.86016  0.63984  0.50000  1.0000
  Hg  Hg4       1.0  0.63984  0.13984  0.77968  1.0000
  Te  Te1       1.0  0.75000  0.75000  0.00000  1.0000
  Te  Te2       1.0  0.25000  0.25000  0.00000  1.0000
