data_image0
_chemical_formula_structural       Te4I6
_chemical_formula_sum              "Te4 I6"
_cell_length_a       9.14044
_cell_length_b       9.14044
_cell_length_c       9.14044
_cell_angle_alpha    123.449
_cell_angle_beta     108.085
_cell_angle_gamma    97.9541

_space_group_name_H-M_alt    "P 1"
_space_group_IT_number       1

loop_
  _space_group_symop_operation_xyz
  'x, y, z'

loop_
  _atom_site_type_symbol
  _atom_site_label
  _atom_site_symmetry_multiplicity
  _atom_site_fract_x
  _atom_site_fract_y
  _atom_site_fract_z
  _atom_site_occupancy
  Te  Te1       1.0  0.79413  0.49808  0.29606  1.0000
  Te  Te2       1.0  0.20587  0.50192  0.70394  1.0000
  Te  Te3       1.0  0.79798  0.00192  0.79606  1.0000
  Te  Te4       1.0  0.20202  0.99808  0.20394  1.0000
  I   I1        1.0  0.49911  0.75289  0.74622  1.0000
  I   I2        1.0  0.50089  0.24711  0.25378  1.0000
  I   I3        1.0  0.00667  0.25289  0.75378  1.0000
  I   I4        1.0  0.99333  0.74711  0.24622  1.0000
  I   I5        1.0  0.00000  0.75000  0.75000  1.0000
  I   I6        1.0  0.00000  0.25000  0.25000  1.0000
