data_image0
_chemical_formula_structural       Te3I4
_chemical_formula_sum              "Te3 I4"
_cell_length_a       12.2907
_cell_length_b       12.2907
_cell_length_c       15.9013
_cell_angle_alpha    28.5017
_cell_angle_beta     28.5017
_cell_angle_gamma    20.255

_space_group_name_H-M_alt    "P 1"
_space_group_IT_number       1

loop_
  _space_group_symop_operation_xyz
  'x, y, z'

loop_
  _atom_site_type_symbol
  _atom_site_label
  _atom_site_symmetry_multiplicity
  _atom_site_fract_x
  _atom_site_fract_y
  _atom_site_fract_z
  _atom_site_occupancy
  Te  Te1       1.0  0.27231  0.27231  0.71284  1.0000
  Te  Te2       1.0  0.72769  0.72769  0.28716  1.0000
  Te  Te3       1.0  0.50000  0.50000  0.50000  1.0000
  I   I1        1.0  0.85702  0.85702  0.47424  1.0000
  I   I2        1.0  0.14298  0.14298  0.52576  1.0000
  I   I3        1.0  0.35585  0.35585  0.00982  1.0000
  I   I4        1.0  0.64415  0.64415  0.99018  1.0000
