data_image0
_chemical_formula_structural       I8Te4
_chemical_formula_sum              "I8 Te4"
_cell_length_a       15.1505
_cell_length_b       12.2195
_cell_length_c       9.75354
_cell_angle_alpha    86.414
_cell_angle_beta     53.6065
_cell_angle_gamma    39.9795

_space_group_name_H-M_alt    "P 1"
_space_group_IT_number       1

loop_
  _space_group_symop_operation_xyz
  'x, y, z'

loop_
  _atom_site_type_symbol
  _atom_site_label
  _atom_site_symmetry_multiplicity
  _atom_site_fract_x
  _atom_site_fract_y
  _atom_site_fract_z
  _atom_site_occupancy
  I   I1        1.0  0.56847  0.93153  0.56847  1.0000
  I   I2        1.0  0.93153  0.56847  0.93153  1.0000
  I   I3        1.0  0.90569  0.90569  0.09431  1.0000
  I   I4        1.0  0.31847  0.68153  0.31847  1.0000
  I   I5        1.0  0.09431  0.09431  0.90569  1.0000
  I   I6        1.0  0.15569  0.15569  0.34431  1.0000
  I   I7        1.0  0.68153  0.31847  0.68153  1.0000
  I   I8        1.0  0.34431  0.34431  0.15569  1.0000
  Te  Te1       1.0  0.59740  0.59740  0.90260  1.0000
  Te  Te2       1.0  0.34740  0.34740  0.65260  1.0000
  Te  Te3       1.0  0.90260  0.90260  0.59740  1.0000
  Te  Te4       1.0  0.65260  0.65260  0.34740  1.0000
