data_image0
_chemical_formula_structural       Hg8Te4
_chemical_formula_sum              "Hg8 Te4"
_cell_length_a       5.95126
_cell_length_b       9.3266
_cell_length_c       8.59842
_cell_angle_alpha    57.7764
_cell_angle_beta     90
_cell_angle_gamma    90

_space_group_name_H-M_alt    "P 1"
_space_group_IT_number       1

loop_
  _space_group_symop_operation_xyz
  'x, y, z'

loop_
  _atom_site_type_symbol
  _atom_site_label
  _atom_site_symmetry_multiplicity
  _atom_site_fract_x
  _atom_site_fract_y
  _atom_site_fract_z
  _atom_site_occupancy
  Hg  Hg1       1.0  0.19661  0.05813  0.38222  1.0000
  Hg  Hg2       1.0  0.69661  0.94187  0.11778  1.0000
  Hg  Hg3       1.0  0.80339  0.94187  0.61778  1.0000
  Hg  Hg4       1.0  0.30339  0.05813  0.88222  1.0000
  Hg  Hg5       1.0  0.80194  0.44106  0.61526  1.0000
  Hg  Hg6       1.0  0.30194  0.55894  0.88474  1.0000
  Hg  Hg7       1.0  0.19806  0.55894  0.38474  1.0000
  Hg  Hg8       1.0  0.69806  0.44106  0.11526  1.0000
  Te  Te1       1.0  0.00173  0.24978  0.99892  1.0000
  Te  Te2       1.0  0.50173  0.75022  0.50108  1.0000
  Te  Te3       1.0  0.99827  0.75022  0.00108  1.0000
  Te  Te4       1.0  0.49827  0.24978  0.49892  1.0000
