data_image0
_chemical_formula_structural       TeHg4
_chemical_formula_sum              "Te1 Hg4"
_cell_length_a       15.3645
_cell_length_b       15.3645
_cell_length_c       15.3645
_cell_angle_alpha    12.2712
_cell_angle_beta     12.2712
_cell_angle_gamma    12.2712

_space_group_name_H-M_alt    "P 1"
_space_group_IT_number       1

loop_
  _space_group_symop_operation_xyz
  'x, y, z'

loop_
  _atom_site_type_symbol
  _atom_site_label
  _atom_site_symmetry_multiplicity
  _atom_site_fract_x
  _atom_site_fract_y
  _atom_site_fract_z
  _atom_site_occupancy
  Te  Te1       1.0  0.00000  0.00000  0.00000  1.0000
  Hg  Hg1       1.0  0.59483  0.59483  0.59483  1.0000
  Hg  Hg2       1.0  0.19883  0.19883  0.19883  1.0000
  Hg  Hg3       1.0  0.80117  0.80117  0.80117  1.0000
  Hg  Hg4       1.0  0.40517  0.40517  0.40517  1.0000
