data_image0
_chemical_formula_structural       I10Te6
_chemical_formula_sum              "I10 Te6"
_cell_length_a       10.9707
_cell_length_b       10.9707
_cell_length_c       10.9707
_cell_angle_alpha    105.839
_cell_angle_beta     105.839
_cell_angle_gamma    117.01

_space_group_name_H-M_alt    "P 1"
_space_group_IT_number       1

loop_
  _space_group_symop_operation_xyz
  'x, y, z'

loop_
  _atom_site_type_symbol
  _atom_site_label
  _atom_site_symmetry_multiplicity
  _atom_site_fract_x
  _atom_site_fract_y
  _atom_site_fract_z
  _atom_site_occupancy
  I   I1        1.0  0.45657  0.67902  0.50000  1.0000
  I   I2        1.0  0.54343  0.32098  0.50000  1.0000
  I   I3        1.0  0.50000  0.50000  0.00000  1.0000
  I   I4        1.0  0.00000  0.00000  0.00000  1.0000
  I   I5        1.0  0.17902  0.95657  0.50000  1.0000
  I   I6        1.0  0.95657  0.45657  0.77755  1.0000
  I   I7        1.0  0.67902  0.17902  0.22245  1.0000
  I   I8        1.0  0.32098  0.82098  0.77755  1.0000
  I   I9        1.0  0.04343  0.54343  0.22245  1.0000
  I   I10       1.0  0.82098  0.04343  0.50000  1.0000
  Te  Te1       1.0  0.73236  0.76764  0.50000  1.0000
  Te  Te2       1.0  0.76764  0.26764  0.03528  1.0000
  Te  Te3       1.0  0.23236  0.73236  0.96472  1.0000
  Te  Te4       1.0  0.26764  0.23236  0.50000  1.0000
  Te  Te5       1.0  0.25000  0.25000  0.00000  1.0000
  Te  Te6       1.0  0.75000  0.75000  0.00000  1.0000
