data_image0
_chemical_formula_structural       Te16Hg7
_chemical_formula_sum              "Te16 Hg7"
_cell_length_a       9.80394
_cell_length_b       9.80394
_cell_length_c       9.80394
_cell_angle_alpha    109.471
_cell_angle_beta     109.471
_cell_angle_gamma    109.471

_space_group_name_H-M_alt    "P 1"
_space_group_IT_number       1

loop_
  _space_group_symop_operation_xyz
  'x, y, z'

loop_
  _atom_site_type_symbol
  _atom_site_label
  _atom_site_symmetry_multiplicity
  _atom_site_fract_x
  _atom_site_fract_y
  _atom_site_fract_z
  _atom_site_occupancy
  Te  Te1       1.0  0.00000  0.24603  0.58132  1.0000
  Te  Te2       1.0  0.58132  0.24603  0.00000  1.0000
  Te  Te3       1.0  0.41868  0.41868  0.66471  1.0000
  Te  Te4       1.0  0.66471  0.41868  0.41868  1.0000
  Te  Te5       1.0  0.75397  0.33529  0.75397  1.0000
  Te  Te6       1.0  0.70946  0.70946  0.70946  1.0000
  Te  Te7       1.0  0.00000  0.00000  0.29054  1.0000
  Te  Te8       1.0  0.29054  0.00000  0.00000  1.0000
  Te  Te9       1.0  0.00000  0.29054  0.00000  1.0000
  Te  Te10      1.0  0.00000  0.58132  0.24603  1.0000
  Te  Te11      1.0  0.33529  0.75397  0.75397  1.0000
  Te  Te12      1.0  0.75397  0.75397  0.33529  1.0000
  Te  Te13      1.0  0.24603  0.58132  0.00000  1.0000
  Te  Te14      1.0  0.58132  0.00000  0.24603  1.0000
  Te  Te15      1.0  0.24603  0.00000  0.58132  1.0000
  Te  Te16      1.0  0.41868  0.66471  0.41868  1.0000
  Hg  Hg1       1.0  0.50000  0.00000  0.50000  1.0000
  Hg  Hg2       1.0  0.00000  0.50000  0.50000  1.0000
  Hg  Hg3       1.0  0.50000  0.50000  0.00000  1.0000
  Hg  Hg4       1.0  0.00000  0.73614  0.00000  1.0000
  Hg  Hg5       1.0  0.73614  0.00000  0.00000  1.0000
  Hg  Hg6       1.0  0.00000  0.00000  0.73614  1.0000
  Hg  Hg7       1.0  0.26386  0.26386  0.26386  1.0000
