data_image0
_chemical_formula_structural       I9Te13
_chemical_formula_sum              "I9 Te13"
_cell_length_a       9.91295
_cell_length_b       9.91295
_cell_length_c       10.9986
_cell_angle_alpha    90
_cell_angle_beta     90
_cell_angle_gamma    120

_space_group_name_H-M_alt    "P 1"
_space_group_IT_number       1

loop_
  _space_group_symop_operation_xyz
  'x, y, z'

loop_
  _atom_site_type_symbol
  _atom_site_label
  _atom_site_symmetry_multiplicity
  _atom_site_fract_x
  _atom_site_fract_y
  _atom_site_fract_z
  _atom_site_occupancy
  I   I1        1.0  0.00000  0.00000  0.50000  1.0000
  I   I2        1.0  0.33333  0.66667  0.73810  1.0000
  I   I3        1.0  0.66667  0.33333  0.26190  1.0000
  I   I4        1.0  0.19638  0.80362  0.37091  1.0000
  I   I5        1.0  0.19638  0.39277  0.37091  1.0000
  I   I6        1.0  0.60723  0.80362  0.37091  1.0000
  I   I7        1.0  0.39277  0.19638  0.62909  1.0000
  I   I8        1.0  0.80362  0.60723  0.62909  1.0000
  I   I9        1.0  0.80362  0.19638  0.62909  1.0000
  Te  Te1       1.0  0.00000  0.00000  0.00000  1.0000
  Te  Te2       1.0  0.50000  0.00000  0.00000  1.0000
  Te  Te3       1.0  0.00000  0.50000  0.00000  1.0000
  Te  Te4       1.0  0.50000  0.50000  0.00000  1.0000
  Te  Te5       1.0  0.50000  0.00000  0.50000  1.0000
  Te  Te6       1.0  0.00000  0.50000  0.50000  1.0000
  Te  Te7       1.0  0.50000  0.50000  0.50000  1.0000
  Te  Te8       1.0  0.17355  0.82645  0.89509  1.0000
  Te  Te9       1.0  0.17355  0.34710  0.89509  1.0000
  Te  Te10      1.0  0.65290  0.82645  0.89509  1.0000
  Te  Te11      1.0  0.34710  0.17355  0.10491  1.0000
  Te  Te12      1.0  0.82645  0.65290  0.10491  1.0000
  Te  Te13      1.0  0.82645  0.17355  0.10491  1.0000
