data_image0
_chemical_formula_structural       Te10I6
_chemical_formula_sum              "Te10 I6"
_cell_length_a       9.72643
_cell_length_b       9.72643
_cell_length_c       9.72643
_cell_angle_alpha    100.684
_cell_angle_beta     100.684
_cell_angle_gamma    128.993

_space_group_name_H-M_alt    "P 1"
_space_group_IT_number       1

loop_
  _space_group_symop_operation_xyz
  'x, y, z'

loop_
  _atom_site_type_symbol
  _atom_site_label
  _atom_site_symmetry_multiplicity
  _atom_site_fract_x
  _atom_site_fract_y
  _atom_site_fract_z
  _atom_site_occupancy
  Te  Te1       1.0  0.52538  0.19446  0.71985  1.0000
  Te  Te2       1.0  0.47462  0.80554  0.28015  1.0000
  Te  Te3       1.0  0.80554  0.52538  0.33092  1.0000
  Te  Te4       1.0  0.19446  0.47462  0.66908  1.0000
  Te  Te5       1.0  0.97462  0.69446  0.66908  1.0000
  Te  Te6       1.0  0.30554  0.97462  0.28015  1.0000
  Te  Te7       1.0  0.25000  0.75000  0.50000  1.0000
  Te  Te8       1.0  0.75000  0.25000  0.50000  1.0000
  Te  Te9       1.0  0.02538  0.30554  0.33092  1.0000
  Te  Te10      1.0  0.69446  0.02538  0.71985  1.0000
  I   I1        1.0  0.77560  0.27560  0.05120  1.0000
  I   I2        1.0  0.72440  0.77560  0.50000  1.0000
  I   I3        1.0  0.27560  0.22440  0.50000  1.0000
  I   I4        1.0  0.22440  0.72440  0.94880  1.0000
  I   I5        1.0  0.75000  0.75000  0.00000  1.0000
  I   I6        1.0  0.25000  0.25000  0.00000  1.0000
