data_image0
_chemical_formula_structural       TeI4
_chemical_formula_sum              "Te1 I4"
_cell_length_a       9.6413
_cell_length_b       9.6413
_cell_length_c       9.6413
_cell_angle_alpha    91.7931
_cell_angle_beta     91.7931
_cell_angle_gamma    159.623

_space_group_name_H-M_alt    "P 1"
_space_group_IT_number       1

loop_
  _space_group_symop_operation_xyz
  'x, y, z'

loop_
  _atom_site_type_symbol
  _atom_site_label
  _atom_site_symmetry_multiplicity
  _atom_site_fract_x
  _atom_site_fract_y
  _atom_site_fract_z
  _atom_site_occupancy
  Te  Te1       1.0  0.00000  0.00000  0.00000  1.0000
  I   I1        1.0  0.47935  0.29402  0.77337  1.0000
  I   I2        1.0  0.52065  0.70598  0.22663  1.0000
  I   I3        1.0  0.70598  0.47935  0.18533  1.0000
  I   I4        1.0  0.29402  0.52065  0.81467  1.0000
