data_image0
_chemical_formula_structural       Te4I4
_chemical_formula_sum              "Te4 I4"
_cell_length_a       6.9846
_cell_length_b       6.9846
_cell_length_c       6.9846
_cell_angle_alpha    90
_cell_angle_beta     90
_cell_angle_gamma    90

_space_group_name_H-M_alt    "P 1"
_space_group_IT_number       1

loop_
  _space_group_symop_operation_xyz
  'x, y, z'

loop_
  _atom_site_type_symbol
  _atom_site_label
  _atom_site_symmetry_multiplicity
  _atom_site_fract_x
  _atom_site_fract_y
  _atom_site_fract_z
  _atom_site_occupancy
  Te  Te1       1.0  0.92021  0.57979  0.42021  1.0000
  Te  Te2       1.0  0.57979  0.42021  0.92021  1.0000
  Te  Te3       1.0  0.42021  0.92021  0.57979  1.0000
  Te  Te4       1.0  0.07979  0.07979  0.07979  1.0000
  I   I1        1.0  0.14464  0.35536  0.64464  1.0000
  I   I2        1.0  0.35536  0.64464  0.14464  1.0000
  I   I3        1.0  0.64464  0.14464  0.35536  1.0000
  I   I4        1.0  0.85536  0.85536  0.85536  1.0000
