data_image0
_chemical_formula_structural       Te4I8
_chemical_formula_sum              "Te4 I8"
_cell_length_a       4.1959
_cell_length_b       10.0284
_cell_length_c       13.8514
_cell_angle_alpha    90
_cell_angle_beta     90
_cell_angle_gamma    90

_space_group_name_H-M_alt    "P 1"
_space_group_IT_number       1

loop_
  _space_group_symop_operation_xyz
  'x, y, z'

loop_
  _atom_site_type_symbol
  _atom_site_label
  _atom_site_symmetry_multiplicity
  _atom_site_fract_x
  _atom_site_fract_y
  _atom_site_fract_z
  _atom_site_occupancy
  Te  Te1       1.0  0.75000  0.83030  0.09846  1.0000
  Te  Te2       1.0  0.25000  0.16970  0.90154  1.0000
  Te  Te3       1.0  0.75000  0.33030  0.40154  1.0000
  Te  Te4       1.0  0.25000  0.66970  0.59846  1.0000
  I   I1        1.0  0.75000  0.53005  0.71556  1.0000
  I   I2        1.0  0.25000  0.46995  0.28444  1.0000
  I   I3        1.0  0.75000  0.03005  0.78444  1.0000
  I   I4        1.0  0.25000  0.96995  0.21556  1.0000
  I   I5        1.0  0.75000  0.30308  0.02224  1.0000
  I   I6        1.0  0.25000  0.69692  0.97776  1.0000
  I   I7        1.0  0.75000  0.80308  0.47776  1.0000
  I   I8        1.0  0.25000  0.19692  0.52224  1.0000
