data_image0
_chemical_formula_structural       I10Te4
_chemical_formula_sum              "I10 Te4"
_cell_length_a       14.1184
_cell_length_b       14.1184
_cell_length_c       8.89081
_cell_angle_alpha    46.1221
_cell_angle_beta     46.1221
_cell_angle_gamma    51.4192

_space_group_name_H-M_alt    "P 1"
_space_group_IT_number       1

loop_
  _space_group_symop_operation_xyz
  'x, y, z'

loop_
  _atom_site_type_symbol
  _atom_site_label
  _atom_site_symmetry_multiplicity
  _atom_site_fract_x
  _atom_site_fract_y
  _atom_site_fract_z
  _atom_site_occupancy
  I   I1        1.0  0.34306  0.65694  0.00000  1.0000
  I   I2        1.0  0.65694  0.34306  0.00000  1.0000
  I   I3        1.0  0.62487  0.62487  0.19015  1.0000
  I   I4        1.0  0.37513  0.37513  0.80985  1.0000
  I   I5        1.0  0.07159  0.07159  0.53735  1.0000
  I   I6        1.0  0.92841  0.92841  0.46265  1.0000
  I   I7        1.0  0.39031  0.02251  0.79379  1.0000
  I   I8        1.0  0.97749  0.60969  0.20621  1.0000
  I   I9        1.0  0.02251  0.39031  0.79379  1.0000
  I   I10       1.0  0.60969  0.97749  0.20621  1.0000
  Te  Te1       1.0  0.14023  0.14023  0.08510  1.0000
  Te  Te2       1.0  0.85977  0.85977  0.91490  1.0000
  Te  Te3       1.0  0.54745  0.54745  0.63941  1.0000
  Te  Te4       1.0  0.45255  0.45255  0.36059  1.0000
