data_image0
_chemical_formula_structural       Hg10Te6
_chemical_formula_sum              "Hg10 Te6"
_cell_length_a       8.68645
_cell_length_b       8.68645
_cell_length_c       8.68645
_cell_angle_alpha    121.374
_cell_angle_beta     121.374
_cell_angle_gamma    87.6358

_space_group_name_H-M_alt    "P 1"
_space_group_IT_number       1

loop_
  _space_group_symop_operation_xyz
  'x, y, z'

loop_
  _atom_site_type_symbol
  _atom_site_label
  _atom_site_symmetry_multiplicity
  _atom_site_fract_x
  _atom_site_fract_y
  _atom_site_fract_z
  _atom_site_occupancy
  Hg  Hg1       1.0  0.46628  0.69688  0.50000  1.0000
  Hg  Hg2       1.0  0.53372  0.30312  0.50000  1.0000
  Hg  Hg3       1.0  0.50000  0.50000  0.00000  1.0000
  Hg  Hg4       1.0  0.00000  0.00000  0.00000  1.0000
  Hg  Hg5       1.0  0.19688  0.96628  0.50000  1.0000
  Hg  Hg6       1.0  0.96628  0.46628  0.76939  1.0000
  Hg  Hg7       1.0  0.69688  0.19688  0.23061  1.0000
  Hg  Hg8       1.0  0.30312  0.80312  0.76939  1.0000
  Hg  Hg9       1.0  0.03372  0.53372  0.23061  1.0000
  Hg  Hg10      1.0  0.80312  0.03372  0.50000  1.0000
  Te  Te1       1.0  0.80388  0.69612  0.50000  1.0000
  Te  Te2       1.0  0.69612  0.19612  0.89224  1.0000
  Te  Te3       1.0  0.30388  0.80388  0.10776  1.0000
  Te  Te4       1.0  0.19612  0.30388  0.50000  1.0000
  Te  Te5       1.0  0.25000  0.25000  0.00000  1.0000
  Te  Te6       1.0  0.75000  0.75000  0.00000  1.0000
