data_image0
_chemical_formula_structural       Te4I8
_chemical_formula_sum              "Te4 I8"
_cell_length_a       14.0045
_cell_length_b       14.0045
_cell_length_c       8.95918
_cell_angle_alpha    90
_cell_angle_beta     90
_cell_angle_gamma    160.267

_space_group_name_H-M_alt    "P 1"
_space_group_IT_number       1

loop_
  _space_group_symop_operation_xyz
  'x, y, z'

loop_
  _atom_site_type_symbol
  _atom_site_label
  _atom_site_symmetry_multiplicity
  _atom_site_fract_x
  _atom_site_fract_y
  _atom_site_fract_z
  _atom_site_occupancy
  Te  Te1       1.0  0.18351  0.81649  0.40351  1.0000
  Te  Te2       1.0  0.81649  0.18351  0.90351  1.0000
  Te  Te3       1.0  0.49512  0.50488  0.62962  1.0000
  Te  Te4       1.0  0.50488  0.49512  0.12962  1.0000
  I   I1        1.0  0.73017  0.26983  0.06026  1.0000
  I   I2        1.0  0.26983  0.73017  0.56026  1.0000
  I   I3        1.0  0.39800  0.60200  0.71038  1.0000
  I   I4        1.0  0.60200  0.39800  0.21038  1.0000
  I   I5        1.0  0.11745  0.88255  0.63229  1.0000
  I   I6        1.0  0.88255  0.11745  0.13229  1.0000
  I   I7        1.0  0.98802  0.01198  0.37824  1.0000
  I   I8        1.0  0.01198  0.98802  0.87824  1.0000
