data_image0
_chemical_formula_structural       Te7N20
_chemical_formula_sum              "Te7 N20"
_cell_length_a       8.51938
_cell_length_b       8.51938
_cell_length_c       8.51938
_cell_angle_alpha    102.511
_cell_angle_beta     102.511
_cell_angle_gamma    102.511

_space_group_name_H-M_alt    "P 1"
_space_group_IT_number       1

loop_
  _space_group_symop_operation_xyz
  'x, y, z'

loop_
  _atom_site_type_symbol
  _atom_site_label
  _atom_site_symmetry_multiplicity
  _atom_site_fract_x
  _atom_site_fract_y
  _atom_site_fract_z
  _atom_site_occupancy
  Te  Te1       1.0  0.00000  0.00000  0.00000  1.0000
  Te  Te2       1.0  0.62684  0.95527  0.91327  1.0000
  Te  Te3       1.0  0.95527  0.91327  0.62684  1.0000
  Te  Te4       1.0  0.91327  0.62684  0.95527  1.0000
  Te  Te5       1.0  0.37316  0.04473  0.08673  1.0000
  Te  Te6       1.0  0.04473  0.08673  0.37316  1.0000
  Te  Te7       1.0  0.08673  0.37316  0.04473  1.0000
  N   N1        1.0  0.44984  0.44984  0.44984  1.0000
  N   N2        1.0  0.55016  0.55016  0.55016  1.0000
  N   N3        1.0  0.93998  0.34867  0.21947  1.0000
  N   N4        1.0  0.34867  0.21947  0.93998  1.0000
  N   N5        1.0  0.21947  0.93998  0.34867  1.0000
  N   N6        1.0  0.06002  0.65133  0.78053  1.0000
  N   N7        1.0  0.65133  0.78053  0.06002  1.0000
  N   N8        1.0  0.78053  0.06002  0.65133  1.0000
  N   N9        1.0  0.84001  0.43179  0.22792  1.0000
  N   N10       1.0  0.43179  0.22792  0.84001  1.0000
  N   N11       1.0  0.22792  0.84001  0.43179  1.0000
  N   N12       1.0  0.15999  0.56821  0.77208  1.0000
  N   N13       1.0  0.56821  0.77208  0.15999  1.0000
  N   N14       1.0  0.77208  0.15999  0.56821  1.0000
  N   N15       1.0  0.24094  0.74502  0.50925  1.0000
  N   N16       1.0  0.74502  0.50925  0.24094  1.0000
  N   N17       1.0  0.50925  0.24094  0.74502  1.0000
  N   N18       1.0  0.75906  0.25498  0.49075  1.0000
  N   N19       1.0  0.25498  0.49075  0.75906  1.0000
  N   N20       1.0  0.49075  0.75906  0.25498  1.0000
