data_image0
_chemical_formula_structural       Te2N3
_chemical_formula_sum              "Te2 N3"
_cell_length_a       3.35487
_cell_length_b       3.35487
_cell_length_c       10.6334
_cell_angle_alpha    90
_cell_angle_beta     90
_cell_angle_gamma    120

_space_group_name_H-M_alt    "P 1"
_space_group_IT_number       1

loop_
  _space_group_symop_operation_xyz
  'x, y, z'

loop_
  _atom_site_type_symbol
  _atom_site_label
  _atom_site_symmetry_multiplicity
  _atom_site_fract_x
  _atom_site_fract_y
  _atom_site_fract_z
  _atom_site_occupancy
  Te  Te1       1.0  0.66667  0.33333  0.35181  1.0000
  Te  Te2       1.0  0.33333  0.66667  0.64819  1.0000
  N   N1        1.0  0.00000  0.00000  0.50000  1.0000
  N   N2        1.0  0.00000  0.00000  0.05256  1.0000
  N   N3        1.0  0.00000  0.00000  0.94744  1.0000
