data_image0
_chemical_formula_structural       Te6N16
_chemical_formula_sum              "Te6 N16"
_cell_length_a       5.51955
_cell_length_b       5.7963
_cell_length_c       14.4499
_cell_angle_alpha    67.6459
_cell_angle_beta     90
_cell_angle_gamma    90

_space_group_name_H-M_alt    "P 1"
_space_group_IT_number       1

loop_
  _space_group_symop_operation_xyz
  'x, y, z'

loop_
  _atom_site_type_symbol
  _atom_site_label
  _atom_site_symmetry_multiplicity
  _atom_site_fract_x
  _atom_site_fract_y
  _atom_site_fract_z
  _atom_site_occupancy
  Te  Te1       1.0  0.47528  0.75013  0.75188  1.0000
  Te  Te2       1.0  0.52472  0.24987  0.24812  1.0000
  Te  Te3       1.0  0.50000  0.00000  0.00000  1.0000
  Te  Te4       1.0  0.97528  0.24987  0.74812  1.0000
  Te  Te5       1.0  0.02472  0.75013  0.25188  1.0000
  Te  Te6       1.0  0.00000  0.00000  0.50000  1.0000
  N   N1        1.0  0.57708  0.60582  0.25900  1.0000
  N   N2        1.0  0.56851  0.24315  0.73603  1.0000
  N   N3        1.0  0.57252  0.57471  0.98225  1.0000
  N   N4        1.0  0.56349  0.08586  0.48547  1.0000
  N   N5        1.0  0.93651  0.08586  0.98547  1.0000
  N   N6        1.0  0.93149  0.24315  0.23603  1.0000
  N   N7        1.0  0.92748  0.57471  0.48225  1.0000
  N   N8        1.0  0.92292  0.60582  0.75900  1.0000
  N   N9        1.0  0.06851  0.75685  0.76397  1.0000
  N   N10       1.0  0.06349  0.91414  0.01453  1.0000
  N   N11       1.0  0.07252  0.42529  0.51775  1.0000
  N   N12       1.0  0.07708  0.39418  0.24100  1.0000
  N   N13       1.0  0.42748  0.42529  0.01775  1.0000
  N   N14       1.0  0.42292  0.39418  0.74100  1.0000
  N   N15       1.0  0.43149  0.75685  0.26397  1.0000
  N   N16       1.0  0.43651  0.91414  0.51453  1.0000
