data_image0
_chemical_formula_structural       I2Te2
_chemical_formula_sum              "I2 Te2"
_cell_length_a       5.36136
_cell_length_b       5.36136
_cell_length_c       6.16753
_cell_angle_alpha    90
_cell_angle_beta     90
_cell_angle_gamma    120

_space_group_name_H-M_alt    "P 1"
_space_group_IT_number       1

loop_
  _space_group_symop_operation_xyz
  'x, y, z'

loop_
  _atom_site_type_symbol
  _atom_site_label
  _atom_site_symmetry_multiplicity
  _atom_site_fract_x
  _atom_site_fract_y
  _atom_site_fract_z
  _atom_site_occupancy
  I   I1        1.0  0.33333  0.66667  0.25000  1.0000
  I   I2        1.0  0.66667  0.33333  0.75000  1.0000
  Te  Te1       1.0  0.00000  0.00000  0.50000  1.0000
  Te  Te2       1.0  0.00000  0.00000  0.00000  1.0000
