data_image0
_chemical_formula_structural       Te9I5
_chemical_formula_sum              "Te9 I5"
_cell_length_a       11.9911
_cell_length_b       11.9911
_cell_length_c       17.4554
_cell_angle_alpha    32.4971
_cell_angle_beta     32.4971
_cell_angle_gamma    29.8606

_space_group_name_H-M_alt    "P 1"
_space_group_IT_number       1

loop_
  _space_group_symop_operation_xyz
  'x, y, z'

loop_
  _atom_site_type_symbol
  _atom_site_label
  _atom_site_symmetry_multiplicity
  _atom_site_fract_x
  _atom_site_fract_y
  _atom_site_fract_z
  _atom_site_occupancy
  Te  Te1       1.0  0.34380  0.17817  0.39786  1.0000
  Te  Te2       1.0  0.82183  0.65620  0.60214  1.0000
  Te  Te3       1.0  0.30686  0.92165  0.17266  1.0000
  Te  Te4       1.0  0.08986  0.67594  0.31120  1.0000
  Te  Te5       1.0  0.32406  0.91014  0.68880  1.0000
  Te  Te6       1.0  0.45460  0.54540  0.50000  1.0000
  Te  Te7       1.0  0.07835  0.69314  0.82734  1.0000
  Te  Te8       1.0  0.28912  0.30728  0.03775  1.0000
  Te  Te9       1.0  0.69272  0.71088  0.96225  1.0000
  I   I1        1.0  0.86345  0.29321  0.52078  1.0000
  I   I2        1.0  0.42191  0.57809  0.00000  1.0000
  I   I3        1.0  0.70679  0.13655  0.47922  1.0000
  I   I4        1.0  0.13245  0.34379  0.79812  1.0000
  I   I5        1.0  0.65621  0.86755  0.20188  1.0000
