data_image0
_chemical_formula_structural       Te4N8
_chemical_formula_sum              "Te4 N8"
_cell_length_a       6.28429
_cell_length_b       6.28429
_cell_length_c       6.28429
_cell_angle_alpha    60
_cell_angle_beta     60
_cell_angle_gamma    60

_space_group_name_H-M_alt    "P 1"
_space_group_IT_number       1

loop_
  _space_group_symop_operation_xyz
  'x, y, z'

loop_
  _atom_site_type_symbol
  _atom_site_label
  _atom_site_symmetry_multiplicity
  _atom_site_fract_x
  _atom_site_fract_y
  _atom_site_fract_z
  _atom_site_occupancy
  Te  Te1       1.0  0.62500  0.62500  0.62500  1.0000
  Te  Te2       1.0  0.12500  0.62500  0.62500  1.0000
  Te  Te3       1.0  0.62500  0.12500  0.62500  1.0000
  Te  Te4       1.0  0.62500  0.62500  0.12500  1.0000
  N   N1        1.0  0.86481  0.40557  0.86481  1.0000
  N   N2        1.0  0.38519  0.38519  0.84443  1.0000
  N   N3        1.0  0.84443  0.38519  0.38519  1.0000
  N   N4        1.0  0.38519  0.38519  0.38519  1.0000
  N   N5        1.0  0.40557  0.86481  0.86481  1.0000
  N   N6        1.0  0.86481  0.86481  0.86481  1.0000
  N   N7        1.0  0.86481  0.86481  0.40557  1.0000
  N   N8        1.0  0.38519  0.84443  0.38519  1.0000
