data_image0
_chemical_formula_structural       N9Te13
_chemical_formula_sum              "N9 Te13"
_cell_length_a       8.37303
_cell_length_b       8.37303
_cell_length_c       7.71482
_cell_angle_alpha    90
_cell_angle_beta     90
_cell_angle_gamma    120

_space_group_name_H-M_alt    "P 1"
_space_group_IT_number       1

loop_
  _space_group_symop_operation_xyz
  'x, y, z'

loop_
  _atom_site_type_symbol
  _atom_site_label
  _atom_site_symmetry_multiplicity
  _atom_site_fract_x
  _atom_site_fract_y
  _atom_site_fract_z
  _atom_site_occupancy
  N   N1        1.0  0.00000  0.00000  0.50000  1.0000
  N   N2        1.0  0.33333  0.66667  0.00859  1.0000
  N   N3        1.0  0.66667  0.33333  0.99141  1.0000
  N   N4        1.0  0.18798  0.81202  0.42886  1.0000
  N   N5        1.0  0.18798  0.37596  0.42886  1.0000
  N   N6        1.0  0.62404  0.81202  0.42886  1.0000
  N   N7        1.0  0.37596  0.18798  0.57114  1.0000
  N   N8        1.0  0.81202  0.62404  0.57114  1.0000
  N   N9        1.0  0.81202  0.18798  0.57114  1.0000
  Te  Te1       1.0  0.00000  0.00000  0.00000  1.0000
  Te  Te2       1.0  0.50000  0.00000  0.00000  1.0000
  Te  Te3       1.0  0.00000  0.50000  0.00000  1.0000
  Te  Te4       1.0  0.50000  0.50000  0.00000  1.0000
  Te  Te5       1.0  0.50000  0.00000  0.50000  1.0000
  Te  Te6       1.0  0.00000  0.50000  0.50000  1.0000
  Te  Te7       1.0  0.50000  0.50000  0.50000  1.0000
  Te  Te8       1.0  0.13563  0.86437  0.68707  1.0000
  Te  Te9       1.0  0.13563  0.27125  0.68707  1.0000
  Te  Te10      1.0  0.72875  0.86437  0.68707  1.0000
  Te  Te11      1.0  0.27125  0.13563  0.31293  1.0000
  Te  Te12      1.0  0.86437  0.72875  0.31293  1.0000
  Te  Te13      1.0  0.86437  0.13563  0.31293  1.0000
