data_image0
_chemical_formula_structural       Te10N6
_chemical_formula_sum              "Te10 N6"
_cell_length_a       8.00325
_cell_length_b       8.00325
_cell_length_c       8.00325
_cell_angle_alpha    99.4779
_cell_angle_beta     99.4779
_cell_angle_gamma    132.119

_space_group_name_H-M_alt    "P 1"
_space_group_IT_number       1

loop_
  _space_group_symop_operation_xyz
  'x, y, z'

loop_
  _atom_site_type_symbol
  _atom_site_label
  _atom_site_symmetry_multiplicity
  _atom_site_fract_x
  _atom_site_fract_y
  _atom_site_fract_z
  _atom_site_occupancy
  Te  Te1       1.0  0.55075  0.28770  0.83846  1.0000
  Te  Te2       1.0  0.44925  0.71230  0.16154  1.0000
  Te  Te3       1.0  0.71230  0.55075  0.26305  1.0000
  Te  Te4       1.0  0.28770  0.44925  0.73695  1.0000
  Te  Te5       1.0  0.94925  0.78770  0.73695  1.0000
  Te  Te6       1.0  0.21230  0.94925  0.16154  1.0000
  Te  Te7       1.0  0.25000  0.75000  0.50000  1.0000
  Te  Te8       1.0  0.75000  0.25000  0.50000  1.0000
  Te  Te9       1.0  0.05075  0.21230  0.26305  1.0000
  Te  Te10      1.0  0.78770  0.05075  0.83846  1.0000
  N   N1        1.0  0.73931  0.23931  0.97862  1.0000
  N   N2        1.0  0.76069  0.73931  0.50000  1.0000
  N   N3        1.0  0.23931  0.26069  0.50000  1.0000
  N   N4        1.0  0.26069  0.76069  0.02138  1.0000
  N   N5        1.0  0.75000  0.75000  0.00000  1.0000
  N   N6        1.0  0.25000  0.25000  0.00000  1.0000
