data_image0
_chemical_formula_structural       Te4N4
_chemical_formula_sum              "Te4 N4"
_cell_length_a       5.38425
_cell_length_b       5.38425
_cell_length_c       5.38425
_cell_angle_alpha    90
_cell_angle_beta     90
_cell_angle_gamma    90

_space_group_name_H-M_alt    "P 1"
_space_group_IT_number       1

loop_
  _space_group_symop_operation_xyz
  'x, y, z'

loop_
  _atom_site_type_symbol
  _atom_site_label
  _atom_site_symmetry_multiplicity
  _atom_site_fract_x
  _atom_site_fract_y
  _atom_site_fract_z
  _atom_site_occupancy
  Te  Te1       1.0  0.97477  0.52523  0.47477  1.0000
  Te  Te2       1.0  0.52523  0.47477  0.97477  1.0000
  Te  Te3       1.0  0.47477  0.97477  0.52523  1.0000
  Te  Te4       1.0  0.02523  0.02523  0.02523  1.0000
  N   N1        1.0  0.18591  0.31409  0.68591  1.0000
  N   N2        1.0  0.31409  0.68591  0.18591  1.0000
  N   N3        1.0  0.68591  0.18591  0.31409  1.0000
  N   N4        1.0  0.81409  0.81409  0.81409  1.0000
