data_image0
_chemical_formula_structural       Te2I6
_chemical_formula_sum              "Te2 I6"
_cell_length_a       6.31066
_cell_length_b       4.47876
_cell_length_c       14.4421
_cell_angle_alpha    90
_cell_angle_beta     90
_cell_angle_gamma    90

_space_group_name_H-M_alt    "P 1"
_space_group_IT_number       1

loop_
  _space_group_symop_operation_xyz
  'x, y, z'

loop_
  _atom_site_type_symbol
  _atom_site_label
  _atom_site_symmetry_multiplicity
  _atom_site_fract_x
  _atom_site_fract_y
  _atom_site_fract_z
  _atom_site_occupancy
  Te  Te1       1.0  0.50000  0.52985  0.50000  1.0000
  Te  Te2       1.0  0.00000  0.47015  0.00000  1.0000
  I   I1        1.0  0.50000  0.02888  0.64116  1.0000
  I   I2        1.0  0.50000  0.02888  0.35884  1.0000
  I   I3        1.0  0.00000  0.97112  0.85884  1.0000
  I   I4        1.0  0.00000  0.97112  0.14116  1.0000
  I   I5        1.0  0.00000  0.53461  0.50000  1.0000
  I   I6        1.0  0.50000  0.46539  0.00000  1.0000
