data_image0
_chemical_formula_structural       TeI2
_chemical_formula_sum              "Te1 I2"
_cell_length_a       4.82025
_cell_length_b       4.82025
_cell_length_c       8.60934
_cell_angle_alpha    111.107
_cell_angle_beta     111.107
_cell_angle_gamma    51.5874

_space_group_name_H-M_alt    "P 1"
_space_group_IT_number       1

loop_
  _space_group_symop_operation_xyz
  'x, y, z'

loop_
  _atom_site_type_symbol
  _atom_site_label
  _atom_site_symmetry_multiplicity
  _atom_site_fract_x
  _atom_site_fract_y
  _atom_site_fract_z
  _atom_site_occupancy
  Te  Te1       1.0  0.66862  0.33138  0.50000  1.0000
  I   I1        1.0  0.27410  0.94271  0.77102  1.0000
  I   I2        1.0  0.05729  0.72590  0.22898  1.0000
