data_image0
_chemical_formula_structural       Te8N16
_chemical_formula_sum              "Te8 N16"
_cell_length_a       3.1794
_cell_length_b       4.92157
_cell_length_c       19.6299
_cell_angle_alpha    90
_cell_angle_beta     90
_cell_angle_gamma    90

_space_group_name_H-M_alt    "P 1"
_space_group_IT_number       1

loop_
  _space_group_symop_operation_xyz
  'x, y, z'

loop_
  _atom_site_type_symbol
  _atom_site_label
  _atom_site_symmetry_multiplicity
  _atom_site_fract_x
  _atom_site_fract_y
  _atom_site_fract_z
  _atom_site_occupancy
  Te  Te1       1.0  0.25000  0.96158  0.81006  1.0000
  Te  Te2       1.0  0.75000  0.03842  0.18994  1.0000
  Te  Te3       1.0  0.75000  0.46158  0.68994  1.0000
  Te  Te4       1.0  0.25000  0.53842  0.31006  1.0000
  Te  Te5       1.0  0.25000  0.95880  0.56986  1.0000
  Te  Te6       1.0  0.75000  0.04120  0.43014  1.0000
  Te  Te7       1.0  0.75000  0.45880  0.93014  1.0000
  Te  Te8       1.0  0.25000  0.54120  0.06986  1.0000
  N   N1        1.0  0.25000  0.65538  0.88300  1.0000
  N   N2        1.0  0.75000  0.34462  0.11700  1.0000
  N   N3        1.0  0.75000  0.15538  0.61700  1.0000
  N   N4        1.0  0.25000  0.84462  0.38300  1.0000
  N   N5        1.0  0.25000  0.21000  0.24145  1.0000
  N   N6        1.0  0.75000  0.79000  0.75855  1.0000
  N   N7        1.0  0.75000  0.71000  0.25855  1.0000
  N   N8        1.0  0.25000  0.29000  0.74145  1.0000
  N   N9        1.0  0.25000  0.27747  0.98250  1.0000
  N   N10       1.0  0.75000  0.72253  0.01750  1.0000
  N   N11       1.0  0.75000  0.77747  0.51750  1.0000
  N   N12       1.0  0.25000  0.22253  0.48250  1.0000
  N   N13       1.0  0.25000  0.85876  0.13973  1.0000
  N   N14       1.0  0.75000  0.14124  0.86027  1.0000
  N   N15       1.0  0.75000  0.35876  0.36027  1.0000
  N   N16       1.0  0.25000  0.64124  0.63973  1.0000
