data_image0
_chemical_formula_structural       Te4N8
_chemical_formula_sum              "Te4 N8"
_cell_length_a       7.97803
_cell_length_b       7.97803
_cell_length_c       11.004
_cell_angle_alpha    61.6879
_cell_angle_beta     61.6879
_cell_angle_gamma    31.1556

_space_group_name_H-M_alt    "P 1"
_space_group_IT_number       1

loop_
  _space_group_symop_operation_xyz
  'x, y, z'

loop_
  _atom_site_type_symbol
  _atom_site_label
  _atom_site_symmetry_multiplicity
  _atom_site_fract_x
  _atom_site_fract_y
  _atom_site_fract_z
  _atom_site_occupancy
  Te  Te1       1.0  0.79426  0.79426  0.87062  1.0000
  Te  Te2       1.0  0.20574  0.20574  0.12938  1.0000
  Te  Te3       1.0  0.31464  0.31464  0.37462  1.0000
  Te  Te4       1.0  0.68536  0.68536  0.62538  1.0000
  N   N1        1.0  0.98052  0.98052  0.05818  1.0000
  N   N2        1.0  0.01948  0.01948  0.94182  1.0000
  N   N3        1.0  0.95842  0.95842  0.52518  1.0000
  N   N4        1.0  0.04158  0.04158  0.47482  1.0000
  N   N5        1.0  0.72507  0.72507  0.07761  1.0000
  N   N6        1.0  0.27493  0.27493  0.92239  1.0000
  N   N7        1.0  0.21398  0.21398  0.57607  1.0000
  N   N8        1.0  0.78602  0.78602  0.42393  1.0000
