data_image0
_chemical_formula_structural       Te2N4
_chemical_formula_sum              "Te2 N4"
_cell_length_a       5.24681
_cell_length_b       5.24681
_cell_length_c       5.24681
_cell_angle_alpha    108.468
_cell_angle_beta     108.468
_cell_angle_gamma    111.498

_space_group_name_H-M_alt    "P 1"
_space_group_IT_number       1

loop_
  _space_group_symop_operation_xyz
  'x, y, z'

loop_
  _atom_site_type_symbol
  _atom_site_label
  _atom_site_symmetry_multiplicity
  _atom_site_fract_x
  _atom_site_fract_y
  _atom_site_fract_z
  _atom_site_occupancy
  Te  Te1       1.0  0.25000  0.25000  0.00000  1.0000
  Te  Te2       1.0  0.75000  0.75000  1.00000  1.0000
  N   N1        1.0  0.56536  0.06536  0.63071  1.0000
  N   N2        1.0  0.43464  0.93464  0.36929  1.0000
  N   N3        1.0  0.93464  0.56536  0.50000  1.0000
  N   N4        1.0  0.06536  0.43464  0.50000  1.0000
