data_image0
_chemical_formula_structural       Te6N4
_chemical_formula_sum              "Te6 N4"
_cell_length_a       8.9265
_cell_length_b       8.9265
_cell_length_c       3.12079
_cell_angle_alpha    90
_cell_angle_beta     90
_cell_angle_gamma    90

_space_group_name_H-M_alt    "P 1"
_space_group_IT_number       1

loop_
  _space_group_symop_operation_xyz
  'x, y, z'

loop_
  _atom_site_type_symbol
  _atom_site_label
  _atom_site_symmetry_multiplicity
  _atom_site_fract_x
  _atom_site_fract_y
  _atom_site_fract_z
  _atom_site_occupancy
  Te  Te1       1.0  0.00000  0.00000  0.00000  1.0000
  Te  Te2       1.0  0.50000  0.50000  0.00000  1.0000
  Te  Te3       1.0  0.23713  0.73713  0.00082  1.0000
  Te  Te4       1.0  0.26287  0.23713  0.99918  1.0000
  Te  Te5       1.0  0.73713  0.76287  0.99918  1.0000
  Te  Te6       1.0  0.76287  0.26287  0.00082  1.0000
  N   N1        1.0  0.33850  0.83850  0.50080  1.0000
  N   N2        1.0  0.16150  0.33850  0.49920  1.0000
  N   N3        1.0  0.83850  0.66150  0.49920  1.0000
  N   N4        1.0  0.66150  0.16150  0.50080  1.0000
