data_image0
_chemical_formula_structural       TeN2
_chemical_formula_sum              "Te1 N2"
_cell_length_a       3.81137
_cell_length_b       3.81137
_cell_length_c       3.93124
_cell_angle_alpha    88.6534
_cell_angle_beta     88.6534
_cell_angle_gamma    68.394

_space_group_name_H-M_alt    "P 1"
_space_group_IT_number       1

loop_
  _space_group_symop_operation_xyz
  'x, y, z'

loop_
  _atom_site_type_symbol
  _atom_site_label
  _atom_site_symmetry_multiplicity
  _atom_site_fract_x
  _atom_site_fract_y
  _atom_site_fract_z
  _atom_site_occupancy
  Te  Te1       1.0  0.66723  0.33277  0.50000  1.0000
  N   N1        1.0  0.16633  0.83356  0.85205  1.0000
  N   N2        1.0  0.16644  0.83367  0.14795  1.0000
