data_image0
_chemical_formula_structural       Te4N8
_chemical_formula_sum              "Te4 N8"
_cell_length_a       3.17937
_cell_length_b       5.48766
_cell_length_c       10.0595
_cell_angle_alpha    90
_cell_angle_beta     90
_cell_angle_gamma    90

_space_group_name_H-M_alt    "P 1"
_space_group_IT_number       1

loop_
  _space_group_symop_operation_xyz
  'x, y, z'

loop_
  _atom_site_type_symbol
  _atom_site_label
  _atom_site_symmetry_multiplicity
  _atom_site_fract_x
  _atom_site_fract_y
  _atom_site_fract_z
  _atom_site_occupancy
  Te  Te1       1.0  0.75000  0.74996  0.99997  1.0000
  Te  Te2       1.0  0.25000  0.25004  0.00003  1.0000
  Te  Te3       1.0  0.75000  0.24996  0.50003  1.0000
  Te  Te4       1.0  0.25000  0.75004  0.49997  1.0000
  N   N1        1.0  0.75000  0.58359  0.60613  1.0000
  N   N2        1.0  0.25000  0.41641  0.39387  1.0000
  N   N3        1.0  0.75000  0.08359  0.89387  1.0000
  N   N4        1.0  0.25000  0.91641  0.10613  1.0000
  N   N5        1.0  0.75000  0.41634  0.10597  1.0000
  N   N6        1.0  0.25000  0.58366  0.89403  1.0000
  N   N7        1.0  0.75000  0.91634  0.39403  1.0000
  N   N8        1.0  0.25000  0.08366  0.60597  1.0000
