data_image0
_chemical_formula_structural       Te2N6
_chemical_formula_sum              "Te2 N6"
_cell_length_a       6.3829
_cell_length_b       3.27988
_cell_length_c       6.75219
_cell_angle_alpha    90
_cell_angle_beta     90
_cell_angle_gamma    90

_space_group_name_H-M_alt    "P 1"
_space_group_IT_number       1

loop_
  _space_group_symop_operation_xyz
  'x, y, z'

loop_
  _atom_site_type_symbol
  _atom_site_label
  _atom_site_symmetry_multiplicity
  _atom_site_fract_x
  _atom_site_fract_y
  _atom_site_fract_z
  _atom_site_occupancy
  Te  Te1       1.0  0.50000  0.25818  0.50000  1.0000
  Te  Te2       1.0  0.00000  0.74182  0.00000  1.0000
  N   N1        1.0  0.50000  0.26265  0.82595  1.0000
  N   N2        1.0  0.50000  0.26265  0.17405  1.0000
  N   N3        1.0  0.00000  0.73735  0.67405  1.0000
  N   N4        1.0  0.00000  0.73735  0.32595  1.0000
  N   N5        1.0  0.00000  0.73806  0.50000  1.0000
  N   N6        1.0  0.50000  0.26194  0.00000  1.0000
