data_image0
_chemical_formula_structural       Te4N12
_chemical_formula_sum              "Te4 N12"
_cell_length_a       7.03256
_cell_length_b       7.03256
_cell_length_c       5.44463
_cell_angle_alpha    90
_cell_angle_beta     90
_cell_angle_gamma    134.38

_space_group_name_H-M_alt    "P 1"
_space_group_IT_number       1

loop_
  _space_group_symop_operation_xyz
  'x, y, z'

loop_
  _atom_site_type_symbol
  _atom_site_label
  _atom_site_symmetry_multiplicity
  _atom_site_fract_x
  _atom_site_fract_y
  _atom_site_fract_z
  _atom_site_occupancy
  Te  Te1       1.0  0.66553  0.33447  0.00000  1.0000
  Te  Te2       1.0  0.33447  0.66553  0.00000  1.0000
  Te  Te3       1.0  0.16553  0.83447  0.50000  1.0000
  Te  Te4       1.0  0.83447  0.16553  0.50000  1.0000
  N   N1        1.0  0.87249  0.87249  0.12701  1.0000
  N   N2        1.0  0.37249  0.37249  0.37299  1.0000
  N   N3        1.0  0.62751  0.62751  0.62701  1.0000
  N   N4        1.0  0.42561  0.57439  0.50000  1.0000
  N   N5        1.0  0.99131  0.49131  0.75000  1.0000
  N   N6        1.0  0.92561  0.07439  0.00000  1.0000
  N   N7        1.0  0.00869  0.50869  0.25000  1.0000
  N   N8        1.0  0.12751  0.12751  0.87299  1.0000
  N   N9        1.0  0.57439  0.42561  0.50000  1.0000
  N   N10       1.0  0.07439  0.92561  0.00000  1.0000
  N   N11       1.0  0.50869  0.00869  0.25000  1.0000
  N   N12       1.0  0.49131  0.99131  0.75000  1.0000
