data_image0
_chemical_formula_structural       I12Te
_chemical_formula_sum              "I12 Te1"
_cell_length_a       10.2593
_cell_length_b       10.2593
_cell_length_c       10.2593
_cell_angle_alpha    109.471
_cell_angle_beta     109.471
_cell_angle_gamma    109.471

_space_group_name_H-M_alt    "P 1"
_space_group_IT_number       1

loop_
  _space_group_symop_operation_xyz
  'x, y, z'

loop_
  _atom_site_type_symbol
  _atom_site_label
  _atom_site_symmetry_multiplicity
  _atom_site_fract_x
  _atom_site_fract_y
  _atom_site_fract_z
  _atom_site_occupancy
  I   I1        1.0  0.68445  0.79876  0.11431  1.0000
  I   I2        1.0  0.88569  0.31555  0.20124  1.0000
  I   I3        1.0  0.57013  0.88569  0.68445  1.0000
  I   I4        1.0  0.88569  0.68445  0.57013  1.0000
  I   I5        1.0  0.42987  0.11431  0.31555  1.0000
  I   I6        1.0  0.11431  0.68445  0.79876  1.0000
  I   I7        1.0  0.79876  0.11431  0.68445  1.0000
  I   I8        1.0  0.20124  0.88569  0.31555  1.0000
  I   I9        1.0  0.11431  0.31555  0.42987  1.0000
  I   I10       1.0  0.68445  0.57013  0.88569  1.0000
  I   I11       1.0  0.31555  0.42987  0.11431  1.0000
  I   I12       1.0  0.31555  0.20124  0.88569  1.0000
  Te  Te1       1.0  0.00000  0.00000  0.00000  1.0000
