data_image0
_chemical_formula_structural       Te2N6
_chemical_formula_sum              "Te2 N6"
_cell_length_a       6.8031
_cell_length_b       6.8031
_cell_length_c       4.41977
_cell_angle_alpha    90
_cell_angle_beta     90
_cell_angle_gamma    120

_space_group_name_H-M_alt    "P 1"
_space_group_IT_number       1

loop_
  _space_group_symop_operation_xyz
  'x, y, z'

loop_
  _atom_site_type_symbol
  _atom_site_label
  _atom_site_symmetry_multiplicity
  _atom_site_fract_x
  _atom_site_fract_y
  _atom_site_fract_z
  _atom_site_occupancy
  Te  Te1       1.0  0.33333  0.66667  0.75000  1.0000
  Te  Te2       1.0  0.66667  0.33333  0.25000  1.0000
  N   N1        1.0  0.26116  0.52231  0.25000  1.0000
  N   N2        1.0  0.47769  0.73884  0.25000  1.0000
  N   N3        1.0  0.26116  0.73884  0.25000  1.0000
  N   N4        1.0  0.73884  0.47769  0.75000  1.0000
  N   N5        1.0  0.52231  0.26116  0.75000  1.0000
  N   N6        1.0  0.73884  0.26116  0.75000  1.0000
