data_image0
_chemical_formula_structural       I8Te4
_chemical_formula_sum              "I8 Te4"
_cell_length_a       8.34129
_cell_length_b       8.61368
_cell_length_c       8.82325
_cell_angle_alpha    81.8675
_cell_angle_beta     90
_cell_angle_gamma    90

_space_group_name_H-M_alt    "P 1"
_space_group_IT_number       1

loop_
  _space_group_symop_operation_xyz
  'x, y, z'

loop_
  _atom_site_type_symbol
  _atom_site_label
  _atom_site_symmetry_multiplicity
  _atom_site_fract_x
  _atom_site_fract_y
  _atom_site_fract_z
  _atom_site_occupancy
  I   I1        1.0  0.24619  0.14063  0.35312  1.0000
  I   I2        1.0  0.74619  0.85937  0.14688  1.0000
  I   I3        1.0  0.75381  0.85937  0.64688  1.0000
  I   I4        1.0  0.25381  0.14063  0.85312  1.0000
  I   I5        1.0  0.80312  0.34908  0.76191  1.0000
  I   I6        1.0  0.30312  0.65092  0.73809  1.0000
  I   I7        1.0  0.19688  0.65092  0.23809  1.0000
  I   I8        1.0  0.69688  0.34908  0.26191  1.0000
  Te  Te1       1.0  0.03575  0.32835  0.98790  1.0000
  Te  Te2       1.0  0.53575  0.67165  0.51210  1.0000
  Te  Te3       1.0  0.96425  0.67165  0.01210  1.0000
  Te  Te4       1.0  0.46425  0.32835  0.48790  1.0000
