data_image0
_chemical_formula_structural       Te4N6
_chemical_formula_sum              "Te4 N6"
_cell_length_a       6.29663
_cell_length_b       6.29663
_cell_length_c       6.29663
_cell_angle_alpha    129.88
_cell_angle_beta     123.803
_cell_angle_gamma    78.6082

_space_group_name_H-M_alt    "P 1"
_space_group_IT_number       1

loop_
  _space_group_symop_operation_xyz
  'x, y, z'

loop_
  _atom_site_type_symbol
  _atom_site_label
  _atom_site_symmetry_multiplicity
  _atom_site_fract_x
  _atom_site_fract_y
  _atom_site_fract_z
  _atom_site_occupancy
  Te  Te1       1.0  0.64944  0.40664  0.24279  1.0000
  Te  Te2       1.0  0.35056  0.59336  0.75721  1.0000
  Te  Te3       1.0  0.83615  0.09336  0.74279  1.0000
  Te  Te4       1.0  0.16385  0.90664  0.25721  1.0000
  N   N1        1.0  0.53048  0.89443  0.63605  1.0000
  N   N2        1.0  0.46952  0.10557  0.36395  1.0000
  N   N3        1.0  0.25837  0.39443  0.86395  1.0000
  N   N4        1.0  0.74163  0.60557  0.13605  1.0000
  N   N5        1.0  0.00000  0.75000  0.75000  1.0000
  N   N6        1.0  0.00000  0.25000  0.25000  1.0000
