data_image0
_chemical_formula_structural       Te2N4
_chemical_formula_sum              "Te2 N4"
_cell_length_a       3.65562
_cell_length_b       3.65562
_cell_length_c       16.4939
_cell_angle_alpha    90
_cell_angle_beta     90
_cell_angle_gamma    120

_space_group_name_H-M_alt    "P 1"
_space_group_IT_number       1

loop_
  _space_group_symop_operation_xyz
  'x, y, z'

loop_
  _atom_site_type_symbol
  _atom_site_label
  _atom_site_symmetry_multiplicity
  _atom_site_fract_x
  _atom_site_fract_y
  _atom_site_fract_z
  _atom_site_occupancy
  Te  Te1       1.0  0.66667  0.33333  0.15155  1.0000
  Te  Te2       1.0  0.33333  0.66667  0.84845  1.0000
  N   N1        1.0  0.33333  0.66667  0.20257  1.0000
  N   N2        1.0  0.66667  0.33333  0.89941  1.0000
  N   N3        1.0  0.33333  0.66667  0.10059  1.0000
  N   N4        1.0  0.66667  0.33333  0.79743  1.0000
