data_image0
_chemical_formula_structural       N10Te6
_chemical_formula_sum              "N10 Te6"
_cell_length_a       6.84693
_cell_length_b       6.84693
_cell_length_c       6.84693
_cell_angle_alpha    126.225
_cell_angle_beta     126.225
_cell_angle_gamma    79.5188

_space_group_name_H-M_alt    "P 1"
_space_group_IT_number       1

loop_
  _space_group_symop_operation_xyz
  'x, y, z'

loop_
  _atom_site_type_symbol
  _atom_site_label
  _atom_site_symmetry_multiplicity
  _atom_site_fract_x
  _atom_site_fract_y
  _atom_site_fract_z
  _atom_site_occupancy
  N   N1        1.0  0.52316  0.69643  0.50000  1.0000
  N   N2        1.0  0.47684  0.30357  0.50000  1.0000
  N   N3        1.0  0.50000  0.50000  0.00000  1.0000
  N   N4        1.0  0.00000  0.00000  0.00000  1.0000
  N   N5        1.0  0.19643  0.02316  0.50000  1.0000
  N   N6        1.0  0.02316  0.52316  0.82673  1.0000
  N   N7        1.0  0.69643  0.19643  0.17327  1.0000
  N   N8        1.0  0.30357  0.80357  0.82673  1.0000
  N   N9        1.0  0.97684  0.47684  0.17327  1.0000
  N   N10       1.0  0.80357  0.97684  0.50000  1.0000
  Te  Te1       1.0  0.82448  0.67552  0.50000  1.0000
  Te  Te2       1.0  0.67552  0.17552  0.85103  1.0000
  Te  Te3       1.0  0.32448  0.82448  0.14897  1.0000
  Te  Te4       1.0  0.17552  0.32448  0.50000  1.0000
  Te  Te5       1.0  0.25000  0.25000  0.00000  1.0000
  Te  Te6       1.0  0.75000  0.75000  0.00000  1.0000
