data_image0
_chemical_formula_structural       Te9N13
_chemical_formula_sum              "Te9 N13"
_cell_length_a       6.60154
_cell_length_b       6.60154
_cell_length_c       9.9846
_cell_angle_alpha    68.3969
_cell_angle_beta     68.3969
_cell_angle_gamma    87.4314

_space_group_name_H-M_alt    "P 1"
_space_group_IT_number       1

loop_
  _space_group_symop_operation_xyz
  'x, y, z'

loop_
  _atom_site_type_symbol
  _atom_site_label
  _atom_site_symmetry_multiplicity
  _atom_site_fract_x
  _atom_site_fract_y
  _atom_site_fract_z
  _atom_site_occupancy
  Te  Te1       1.0  0.37662  0.37662  0.17280  1.0000
  Te  Te2       1.0  0.73983  0.08833  0.38401  1.0000
  Te  Te3       1.0  0.77387  0.77387  0.05913  1.0000
  Te  Te4       1.0  0.22613  0.22613  0.94087  1.0000
  Te  Te5       1.0  0.50000  0.50000  0.50000  1.0000
  Te  Te6       1.0  0.62338  0.62338  0.82720  1.0000
  Te  Te7       1.0  0.08833  0.73983  0.38401  1.0000
  Te  Te8       1.0  0.91167  0.26017  0.61599  1.0000
  Te  Te9       1.0  0.26017  0.91167  0.61599  1.0000
  N   N1        1.0  0.54554  0.11712  0.58498  1.0000
  N   N2        1.0  0.11712  0.54554  0.58498  1.0000
  N   N3        1.0  0.54473  0.54473  0.24558  1.0000
  N   N4        1.0  0.78428  0.78428  0.50552  1.0000
  N   N5        1.0  0.45446  0.88288  0.41502  1.0000
  N   N6        1.0  0.65829  0.34171  0.00000  1.0000
  N   N7        1.0  0.21572  0.21572  0.49448  1.0000
  N   N8        1.0  0.45527  0.45527  0.75442  1.0000
  N   N9        1.0  0.34171  0.65829  0.00000  1.0000
  N   N10       1.0  0.00000  0.00000  0.50000  1.0000
  N   N11       1.0  0.88288  0.45446  0.41502  1.0000
  N   N12       1.0  0.00000  0.50000  0.00000  1.0000
  N   N13       1.0  0.50000  0.00000  0.00000  1.0000
