data_image0
_chemical_formula_structural       Te8Se16
_chemical_formula_sum              "Te8 Se16"
_cell_length_a       4.88762
_cell_length_b       13.9966
_cell_length_c       10.7351
_cell_angle_alpha    90
_cell_angle_beta     90
_cell_angle_gamma    90

_space_group_name_H-M_alt    "P 1"
_space_group_IT_number       1

loop_
  _space_group_symop_operation_xyz
  'x, y, z'

loop_
  _atom_site_type_symbol
  _atom_site_label
  _atom_site_symmetry_multiplicity
  _atom_site_fract_x
  _atom_site_fract_y
  _atom_site_fract_z
  _atom_site_occupancy
  Te  Te1       1.0  0.72558  0.85594  0.16635  1.0000
  Te  Te2       1.0  0.77442  0.64406  0.66635  1.0000
  Te  Te3       1.0  0.77442  0.35594  0.83365  1.0000
  Te  Te4       1.0  0.72558  0.14406  0.33365  1.0000
  Te  Te5       1.0  0.27442  0.14406  0.83365  1.0000
  Te  Te6       1.0  0.22558  0.35594  0.33365  1.0000
  Te  Te7       1.0  0.22558  0.64406  0.16635  1.0000
  Te  Te8       1.0  0.27442  0.85594  0.66635  1.0000
  Se  Se1       1.0  0.53610  0.50000  0.25000  1.0000
  Se  Se2       1.0  0.96390  0.00000  0.75000  1.0000
  Se  Se3       1.0  0.46390  0.50000  0.75000  1.0000
  Se  Se4       1.0  0.03610  0.00000  0.25000  1.0000
  Se  Se5       1.0  0.69947  0.78126  0.39458  1.0000
  Se  Se6       1.0  0.80053  0.71874  0.89458  1.0000
  Se  Se7       1.0  0.80053  0.28126  0.60542  1.0000
  Se  Se8       1.0  0.69947  0.21874  0.10542  1.0000
  Se  Se9       1.0  0.30053  0.21874  0.60542  1.0000
  Se  Se10      1.0  0.19947  0.28126  0.10542  1.0000
  Se  Se11      1.0  0.19947  0.71874  0.39458  1.0000
  Se  Se12      1.0  0.30053  0.78126  0.89458  1.0000
  Se  Se13      1.0  0.50000  0.50000  0.00000  1.0000
  Se  Se14      1.0  0.00000  0.00000  0.50000  1.0000
  Se  Se15      1.0  0.00000  0.00000  0.00000  1.0000
  Se  Se16      1.0  0.50000  0.50000  0.50000  1.0000
