data_image0
_chemical_formula_structural       Te2S10
_chemical_formula_sum              "Te2 S10"
_cell_length_a       5.734
_cell_length_b       5.734
_cell_length_c       12.0168
_cell_angle_alpha    79.4349
_cell_angle_beta     79.4349
_cell_angle_gamma    94.0153

_space_group_name_H-M_alt    "P 1"
_space_group_IT_number       1

loop_
  _space_group_symop_operation_xyz
  'x, y, z'

loop_
  _atom_site_type_symbol
  _atom_site_label
  _atom_site_symmetry_multiplicity
  _atom_site_fract_x
  _atom_site_fract_y
  _atom_site_fract_z
  _atom_site_occupancy
  Te  Te1       1.0  0.72036  0.99365  0.31581  1.0000
  Te  Te2       1.0  0.00635  0.27964  0.68419  1.0000
  S   S1        1.0  0.71517  0.28483  0.50000  1.0000
  S   S2        1.0  0.35156  0.64844  0.50000  1.0000
  S   S3        1.0  0.43945  0.89465  0.18823  1.0000
  S   S4        1.0  0.10535  0.56055  0.81177  1.0000
  S   S5        1.0  0.03362  0.30448  0.19936  1.0000
  S   S6        1.0  0.69552  0.96638  0.80064  1.0000
  S   S7        1.0  0.44590  0.37479  0.40051  1.0000
  S   S8        1.0  0.62521  0.55410  0.59949  1.0000
  S   S9        1.0  0.30325  0.16773  0.09880  1.0000
  S   S10       1.0  0.83227  0.69675  0.90120  1.0000
