data_image0
_chemical_formula_structural       Te2N2
_chemical_formula_sum              "Te2 N2"
_cell_length_a       3.22342
_cell_length_b       6.71959
_cell_length_c       3.60892
_cell_angle_alpha    90
_cell_angle_beta     90
_cell_angle_gamma    90

_space_group_name_H-M_alt    "P 1"
_space_group_IT_number       1

loop_
  _space_group_symop_operation_xyz
  'x, y, z'

loop_
  _atom_site_type_symbol
  _atom_site_label
  _atom_site_symmetry_multiplicity
  _atom_site_fract_x
  _atom_site_fract_y
  _atom_site_fract_z
  _atom_site_occupancy
  Te  Te1       1.0  0.00000  0.75000  0.93482  1.0000
  Te  Te2       1.0  0.00000  0.25000  0.06518  1.0000
  N   N1        1.0  0.50000  0.75000  0.58251  1.0000
  N   N2        1.0  0.50000  0.25000  0.41749  1.0000
