data_image0
_chemical_formula_structural       S10Te6
_chemical_formula_sum              "S10 Te6"
_cell_length_a       8.38888
_cell_length_b       8.38888
_cell_length_c       8.38888
_cell_angle_alpha    126.804
_cell_angle_beta     126.804
_cell_angle_gamma    78.5701

_space_group_name_H-M_alt    "P 1"
_space_group_IT_number       1

loop_
  _space_group_symop_operation_xyz
  'x, y, z'

loop_
  _atom_site_type_symbol
  _atom_site_label
  _atom_site_symmetry_multiplicity
  _atom_site_fract_x
  _atom_site_fract_y
  _atom_site_fract_z
  _atom_site_occupancy
  S   S1        1.0  0.52291  0.68418  0.50000  1.0000
  S   S2        1.0  0.47709  0.31582  0.50000  1.0000
  S   S3        1.0  0.50000  0.50000  0.00000  1.0000
  S   S4        1.0  0.00000  0.00000  0.00000  1.0000
  S   S5        1.0  0.18418  0.02291  0.50000  1.0000
  S   S6        1.0  0.02291  0.52291  0.83872  1.0000
  S   S7        1.0  0.68418  0.18418  0.16128  1.0000
  S   S8        1.0  0.31582  0.81582  0.83872  1.0000
  S   S9        1.0  0.97709  0.47709  0.16128  1.0000
  S   S10       1.0  0.81582  0.97709  0.50000  1.0000
  Te  Te1       1.0  0.81268  0.68732  0.50000  1.0000
  Te  Te2       1.0  0.68732  0.18732  0.87464  1.0000
  Te  Te3       1.0  0.31268  0.81268  0.12536  1.0000
  Te  Te4       1.0  0.18732  0.31268  0.50000  1.0000
  Te  Te5       1.0  0.25000  0.25000  0.00000  1.0000
  Te  Te6       1.0  0.75000  0.75000  0.00000  1.0000
