data_image0
_chemical_formula_structural       Te2S4
_chemical_formula_sum              "Te2 S4"
_cell_length_a       7.05452
_cell_length_b       7.05452
_cell_length_c       3.59829
_cell_angle_alpha    90
_cell_angle_beta     90
_cell_angle_gamma    99.0615

_space_group_name_H-M_alt    "P 1"
_space_group_IT_number       1

loop_
  _space_group_symop_operation_xyz
  'x, y, z'

loop_
  _atom_site_type_symbol
  _atom_site_label
  _atom_site_symmetry_multiplicity
  _atom_site_fract_x
  _atom_site_fract_y
  _atom_site_fract_z
  _atom_site_occupancy
  Te  Te1       1.0  0.19085  0.19085  0.75000  1.0000
  Te  Te2       1.0  0.80915  0.80915  0.25000  1.0000
  S   S1        1.0  0.56598  0.88248  0.75000  1.0000
  S   S2        1.0  0.88248  0.56598  0.75000  1.0000
  S   S3        1.0  0.11752  0.43402  0.25000  1.0000
  S   S4        1.0  0.43402  0.11752  0.25000  1.0000
