data_image0
_chemical_formula_structural       S8Te4
_chemical_formula_sum              "S8 Te4"
_cell_length_a       8.27206
_cell_length_b       7.13708
_cell_length_c       6.59873
_cell_angle_alpha    65.1713
_cell_angle_beta     90
_cell_angle_gamma    90

_space_group_name_H-M_alt    "P 1"
_space_group_IT_number       1

loop_
  _space_group_symop_operation_xyz
  'x, y, z'

loop_
  _atom_site_type_symbol
  _atom_site_label
  _atom_site_symmetry_multiplicity
  _atom_site_fract_x
  _atom_site_fract_y
  _atom_site_fract_z
  _atom_site_occupancy
  S   S1        1.0  0.41017  0.24006  0.21996  1.0000
  S   S2        1.0  0.58983  0.24006  0.71996  1.0000
  S   S3        1.0  0.33710  0.77861  0.75451  1.0000
  S   S4        1.0  0.83719  0.24912  0.27333  1.0000
  S   S5        1.0  0.66290  0.77861  0.25451  1.0000
  S   S6        1.0  0.16281  0.24912  0.77333  1.0000
  S   S7        1.0  0.91012  0.78763  0.80808  1.0000
  S   S8        1.0  0.08988  0.78763  0.30808  1.0000
  Te  Te1       1.0  0.38122  0.02148  0.98630  1.0000
  Te  Te2       1.0  0.61878  0.02148  0.48630  1.0000
  Te  Te3       1.0  0.88147  0.00639  0.04114  1.0000
  Te  Te4       1.0  0.11853  0.00639  0.54114  1.0000
