data_image0
_chemical_formula_structural       Te2S4
_chemical_formula_sum              "Te2 S4"
_cell_length_a       5.52887
_cell_length_b       5.52887
_cell_length_c       5.52887
_cell_angle_alpha    112.229
_cell_angle_beta     112.229
_cell_angle_gamma    104.087

_space_group_name_H-M_alt    "P 1"
_space_group_IT_number       1

loop_
  _space_group_symop_operation_xyz
  'x, y, z'

loop_
  _atom_site_type_symbol
  _atom_site_label
  _atom_site_symmetry_multiplicity
  _atom_site_fract_x
  _atom_site_fract_y
  _atom_site_fract_z
  _atom_site_occupancy
  Te  Te1       1.0  0.75000  0.75000  0.00000  1.0000
  Te  Te2       1.0  0.25000  0.25000  0.00000  1.0000
  S   S1        1.0  0.34650  0.15350  0.50000  1.0000
  S   S2        1.0  0.84650  0.34650  0.19299  1.0000
  S   S3        1.0  0.65350  0.84650  0.50000  1.0000
  S   S4        1.0  0.15350  0.65350  0.80701  1.0000
