data_image0
_chemical_formula_structural       Te6S20
_chemical_formula_sum              "Te6 S20"
_cell_length_a       15.2522
_cell_length_b       15.2522
_cell_length_c       3.43828
_cell_angle_alpha    90
_cell_angle_beta     90
_cell_angle_gamma    120

_space_group_name_H-M_alt    "P 1"
_space_group_IT_number       1

loop_
  _space_group_symop_operation_xyz
  'x, y, z'

loop_
  _atom_site_type_symbol
  _atom_site_label
  _atom_site_symmetry_multiplicity
  _atom_site_fract_x
  _atom_site_fract_y
  _atom_site_fract_z
  _atom_site_occupancy
  Te  Te1       1.0  0.62458  0.69725  0.25000  1.0000
  Te  Te2       1.0  0.30275  0.92733  0.25000  1.0000
  Te  Te3       1.0  0.07267  0.37542  0.25000  1.0000
  Te  Te4       1.0  0.37542  0.30275  0.75000  1.0000
  Te  Te5       1.0  0.69725  0.07267  0.75000  1.0000
  Te  Te6       1.0  0.92733  0.62458  0.75000  1.0000
  S   S1        1.0  0.81464  0.07883  0.25000  1.0000
  S   S2        1.0  0.92117  0.73581  0.25000  1.0000
  S   S3        1.0  0.26419  0.18536  0.25000  1.0000
  S   S4        1.0  0.18536  0.92117  0.75000  1.0000
  S   S5        1.0  0.07883  0.26419  0.75000  1.0000
  S   S6        1.0  0.73581  0.81464  0.75000  1.0000
  S   S7        1.0  0.52218  0.92006  0.25000  1.0000
  S   S8        1.0  0.07994  0.60212  0.25000  1.0000
  S   S9        1.0  0.39788  0.47782  0.25000  1.0000
  S   S10       1.0  0.47782  0.07994  0.75000  1.0000
  S   S11       1.0  0.92006  0.39788  0.75000  1.0000
  S   S12       1.0  0.60212  0.52218  0.75000  1.0000
  S   S13       1.0  0.81068  0.36646  0.25000  1.0000
  S   S14       1.0  0.63354  0.44423  0.25000  1.0000
  S   S15       1.0  0.55577  0.18932  0.25000  1.0000
  S   S16       1.0  0.18932  0.63354  0.75000  1.0000
  S   S17       1.0  0.36646  0.55577  0.75000  1.0000
  S   S18       1.0  0.44423  0.81068  0.75000  1.0000
  S   S19       1.0  0.66667  0.33333  0.75000  1.0000
  S   S20       1.0  0.33333  0.66667  0.25000  1.0000
