data_image0
_chemical_formula_structural       Te4S8
_chemical_formula_sum              "Te4 S8"
_cell_length_a       3.77166
_cell_length_b       10.423
_cell_length_c       8.71088
_cell_angle_alpha    90
_cell_angle_beta     90
_cell_angle_gamma    90

_space_group_name_H-M_alt    "P 1"
_space_group_IT_number       1

loop_
  _space_group_symop_operation_xyz
  'x, y, z'

loop_
  _atom_site_type_symbol
  _atom_site_label
  _atom_site_symmetry_multiplicity
  _atom_site_fract_x
  _atom_site_fract_y
  _atom_site_fract_z
  _atom_site_occupancy
  Te  Te1       1.0  0.75000  0.84227  0.04055  1.0000
  Te  Te2       1.0  0.25000  0.15773  0.95945  1.0000
  Te  Te3       1.0  0.75000  0.34227  0.45945  1.0000
  Te  Te4       1.0  0.25000  0.65773  0.54055  1.0000
  S   S1        1.0  0.75000  0.48967  0.67533  1.0000
  S   S2        1.0  0.25000  0.51033  0.32467  1.0000
  S   S3        1.0  0.75000  0.98967  0.82467  1.0000
  S   S4        1.0  0.25000  0.01033  0.17533  1.0000
  S   S5        1.0  0.75000  0.29669  0.07131  1.0000
  S   S6        1.0  0.25000  0.70331  0.92869  1.0000
  S   S7        1.0  0.75000  0.79669  0.42869  1.0000
  S   S8        1.0  0.25000  0.20331  0.57131  1.0000
