data_image0
_chemical_formula_structural       Te2S6
_chemical_formula_sum              "Te2 S6"
_cell_length_a       7.78775
_cell_length_b       7.78775
_cell_length_c       7.78775
_cell_angle_alpha    143.107
_cell_angle_beta     143.107
_cell_angle_gamma    53.1655

_space_group_name_H-M_alt    "P 1"
_space_group_IT_number       1

loop_
  _space_group_symop_operation_xyz
  'x, y, z'

loop_
  _atom_site_type_symbol
  _atom_site_label
  _atom_site_symmetry_multiplicity
  _atom_site_fract_x
  _atom_site_fract_y
  _atom_site_fract_z
  _atom_site_occupancy
  Te  Te1       1.0  0.83954  0.83954  0.00000  1.0000
  Te  Te2       1.0  0.16046  0.16046  0.00000  1.0000
  S   S1        1.0  0.00000  0.50000  0.50000  1.0000
  S   S2        1.0  0.50000  0.00000  0.50000  1.0000
  S   S3        1.0  0.75000  0.25000  0.50000  1.0000
  S   S4        1.0  0.25000  0.75000  0.50000  1.0000
  S   S5        1.0  0.57163  0.57163  0.00000  1.0000
  S   S6        1.0  0.42837  0.42837  0.00000  1.0000
