data_image0
_chemical_formula_structural       Te4S8
_chemical_formula_sum              "Te4 S8"
_cell_length_a       11.526
_cell_length_b       11.526
_cell_length_c       8.22905
_cell_angle_alpha    90
_cell_angle_beta     90
_cell_angle_gamma    161.222

_space_group_name_H-M_alt    "P 1"
_space_group_IT_number       1

loop_
  _space_group_symop_operation_xyz
  'x, y, z'

loop_
  _atom_site_type_symbol
  _atom_site_label
  _atom_site_symmetry_multiplicity
  _atom_site_fract_x
  _atom_site_fract_y
  _atom_site_fract_z
  _atom_site_occupancy
  Te  Te1       1.0  0.19219  0.80781  0.33810  1.0000
  Te  Te2       1.0  0.80781  0.19219  0.83810  1.0000
  Te  Te3       1.0  0.54682  0.45318  0.43547  1.0000
  Te  Te4       1.0  0.45318  0.54682  0.93547  1.0000
  S   S1        1.0  0.75727  0.24273  0.44848  1.0000
  S   S2        1.0  0.24273  0.75727  0.94848  1.0000
  S   S3        1.0  0.38817  0.61183  0.70354  1.0000
  S   S4        1.0  0.61183  0.38817  0.20354  1.0000
  S   S5        1.0  0.12630  0.87370  0.56969  1.0000
  S   S6        1.0  0.87370  0.12630  0.06969  1.0000
  S   S7        1.0  0.98275  0.01725  0.31902  1.0000
  S   S8        1.0  0.01725  0.98275  0.81902  1.0000
