data_image0
_chemical_formula_structural       Te8S16
_chemical_formula_sum              "Te8 S16"
_cell_length_a       4.43947
_cell_length_b       13.4019
_cell_length_c       10.0059
_cell_angle_alpha    90
_cell_angle_beta     90
_cell_angle_gamma    90

_space_group_name_H-M_alt    "P 1"
_space_group_IT_number       1

loop_
  _space_group_symop_operation_xyz
  'x, y, z'

loop_
  _atom_site_type_symbol
  _atom_site_label
  _atom_site_symmetry_multiplicity
  _atom_site_fract_x
  _atom_site_fract_y
  _atom_site_fract_z
  _atom_site_occupancy
  Te  Te1       1.0  0.70749  0.85744  0.15735  1.0000
  Te  Te2       1.0  0.79251  0.64256  0.65735  1.0000
  Te  Te3       1.0  0.79251  0.35744  0.84265  1.0000
  Te  Te4       1.0  0.70749  0.14256  0.34265  1.0000
  Te  Te5       1.0  0.29251  0.14256  0.84265  1.0000
  Te  Te6       1.0  0.20749  0.35744  0.34265  1.0000
  Te  Te7       1.0  0.20749  0.64256  0.15735  1.0000
  Te  Te8       1.0  0.29251  0.85744  0.65735  1.0000
  S   S1        1.0  0.52619  0.50000  0.25000  1.0000
  S   S2        1.0  0.97381  0.00000  0.75000  1.0000
  S   S3        1.0  0.47381  0.50000  0.75000  1.0000
  S   S4        1.0  0.02619  0.00000  0.25000  1.0000
  S   S5        1.0  0.69245  0.77627  0.38750  1.0000
  S   S6        1.0  0.80755  0.72373  0.88750  1.0000
  S   S7        1.0  0.80755  0.27627  0.61250  1.0000
  S   S8        1.0  0.69245  0.22373  0.11250  1.0000
  S   S9        1.0  0.30755  0.22373  0.61250  1.0000
  S   S10       1.0  0.19245  0.27627  0.11250  1.0000
  S   S11       1.0  0.19245  0.72373  0.38750  1.0000
  S   S12       1.0  0.30755  0.77627  0.88750  1.0000
  S   S13       1.0  0.50000  0.50000  0.00000  1.0000
  S   S14       1.0  0.00000  0.00000  0.50000  1.0000
  S   S15       1.0  0.00000  0.00000  0.00000  1.0000
  S   S16       1.0  0.50000  0.50000  0.50000  1.0000
