data_image0
_chemical_formula_structural       TeS4
_chemical_formula_sum              "Te1 S4"
_cell_length_a       5.51123
_cell_length_b       5.51123
_cell_length_c       5.51123
_cell_angle_alpha    95.4531
_cell_angle_beta     95.4531
_cell_angle_gamma    144.09

_space_group_name_H-M_alt    "P 1"
_space_group_IT_number       1

loop_
  _space_group_symop_operation_xyz
  'x, y, z'

loop_
  _atom_site_type_symbol
  _atom_site_label
  _atom_site_symmetry_multiplicity
  _atom_site_fract_x
  _atom_site_fract_y
  _atom_site_fract_z
  _atom_site_occupancy
  Te  Te1       1.0  0.00000  0.00000  0.00000  1.0000
  S   S1        1.0  0.59753  0.21440  0.81194  1.0000
  S   S2        1.0  0.40247  0.78560  0.18806  1.0000
  S   S3        1.0  0.78560  0.59753  0.38313  1.0000
  S   S4        1.0  0.21440  0.40247  0.61687  1.0000
