data_image0
_chemical_formula_structural       S6Te2
_chemical_formula_sum              "S6 Te2"
_cell_length_a       3.58698
_cell_length_b       8.16133
_cell_length_c       7.16559
_cell_angle_alpha    90
_cell_angle_beta     90
_cell_angle_gamma    90

_space_group_name_H-M_alt    "P 1"
_space_group_IT_number       1

loop_
  _space_group_symop_operation_xyz
  'x, y, z'

loop_
  _atom_site_type_symbol
  _atom_site_label
  _atom_site_symmetry_multiplicity
  _atom_site_fract_x
  _atom_site_fract_y
  _atom_site_fract_z
  _atom_site_occupancy
  S   S1        1.0  0.00000  0.25437  0.23286  1.0000
  S   S2        1.0  0.00000  0.25437  0.76714  1.0000
  S   S3        1.0  0.50000  0.74563  0.26714  1.0000
  S   S4        1.0  0.50000  0.74563  0.73286  1.0000
  S   S5        1.0  0.00000  0.74921  0.50000  1.0000
  S   S6        1.0  0.50000  0.25079  0.00000  1.0000
  Te  Te1       1.0  0.00000  0.76673  0.00000  1.0000
  Te  Te2       1.0  0.50000  0.23327  0.50000  1.0000
