data_image0
_chemical_formula_structural       TeS2
_chemical_formula_sum              "Te1 S2"
_cell_length_a       5.79453
_cell_length_b       5.79453
_cell_length_c       5.79453
_cell_angle_alpha    145.316
_cell_angle_beta     145.316
_cell_angle_gamma    49.8646

_space_group_name_H-M_alt    "P 1"
_space_group_IT_number       1

loop_
  _space_group_symop_operation_xyz
  'x, y, z'

loop_
  _atom_site_type_symbol
  _atom_site_label
  _atom_site_symmetry_multiplicity
  _atom_site_fract_x
  _atom_site_fract_y
  _atom_site_fract_z
  _atom_site_occupancy
  Te  Te1       1.0  0.00000  0.00000  0.00000  1.0000
  S   S1        1.0  0.35553  0.35553  0.00000  1.0000
  S   S2        1.0  0.64447  0.64447  0.00000  1.0000
