data_image0
_chemical_formula_structural       Te9S13
_chemical_formula_sum              "Te9 S13"
_cell_length_a       9.79031
_cell_length_b       9.79031
_cell_length_c       11.2187
_cell_angle_alpha    50.7013
_cell_angle_beta     50.7013
_cell_angle_gamma    49.3321

_space_group_name_H-M_alt    "P 1"
_space_group_IT_number       1

loop_
  _space_group_symop_operation_xyz
  'x, y, z'

loop_
  _atom_site_type_symbol
  _atom_site_label
  _atom_site_symmetry_multiplicity
  _atom_site_fract_x
  _atom_site_fract_y
  _atom_site_fract_z
  _atom_site_occupancy
  Te  Te1       1.0  0.19269  0.19269  0.21361  1.0000
  Te  Te2       1.0  0.66216  0.13953  0.37180  1.0000
  Te  Te3       1.0  0.90023  0.90023  0.98305  1.0000
  Te  Te4       1.0  0.09977  0.09977  0.01695  1.0000
  Te  Te5       1.0  0.50000  0.50000  0.50000  1.0000
  Te  Te6       1.0  0.80731  0.80731  0.78639  1.0000
  Te  Te7       1.0  0.13953  0.66216  0.37180  1.0000
  Te  Te8       1.0  0.86047  0.33784  0.62820  1.0000
  Te  Te9       1.0  0.33784  0.86047  0.62820  1.0000
  S   S1        1.0  0.52689  0.13150  0.65031  1.0000
  S   S2        1.0  0.13150  0.52689  0.65031  1.0000
  S   S3        1.0  0.52830  0.52830  0.23879  1.0000
  S   S4        1.0  0.76657  0.76657  0.49892  1.0000
  S   S5        1.0  0.47311  0.86850  0.34969  1.0000
  S   S6        1.0  0.79466  0.20534  0.00000  1.0000
  S   S7        1.0  0.23343  0.23343  0.50108  1.0000
  S   S8        1.0  0.47170  0.47170  0.76121  1.0000
  S   S9        1.0  0.20534  0.79466  0.00000  1.0000
  S   S10       1.0  0.00000  0.00000  0.50000  1.0000
  S   S11       1.0  0.86850  0.47311  0.34969  1.0000
  S   S12       1.0  0.00000  0.50000  0.00000  1.0000
  S   S13       1.0  0.50000  0.00000  0.00000  1.0000
