data_image0
_chemical_formula_structural       S4Te4
_chemical_formula_sum              "S4 Te4"
_cell_length_a       7.3191
_cell_length_b       7.3191
_cell_length_c       7.3191
_cell_angle_alpha    90
_cell_angle_beta     90
_cell_angle_gamma    90

_space_group_name_H-M_alt    "P 1"
_space_group_IT_number       1

loop_
  _space_group_symop_operation_xyz
  'x, y, z'

loop_
  _atom_site_type_symbol
  _atom_site_label
  _atom_site_symmetry_multiplicity
  _atom_site_fract_x
  _atom_site_fract_y
  _atom_site_fract_z
  _atom_site_occupancy
  S   S1        1.0  0.89584  0.60416  0.39584  1.0000
  S   S2        1.0  0.60416  0.39584  0.89584  1.0000
  S   S3        1.0  0.39584  0.89584  0.60416  1.0000
  S   S4        1.0  0.10416  0.10416  0.10416  1.0000
  Te  Te1       1.0  0.37451  0.12549  0.87451  1.0000
  Te  Te2       1.0  0.12549  0.87451  0.37451  1.0000
  Te  Te3       1.0  0.87451  0.37451  0.12549  1.0000
  Te  Te4       1.0  0.62549  0.62549  0.62549  1.0000
