data_image0
_chemical_formula_structural       Te10S6
_chemical_formula_sum              "Te10 S6"
_cell_length_a       8.4097
_cell_length_b       8.4097
_cell_length_c       8.4097
_cell_angle_alpha    101.037
_cell_angle_beta     101.037
_cell_angle_gamma    128.105

_space_group_name_H-M_alt    "P 1"
_space_group_IT_number       1

loop_
  _space_group_symop_operation_xyz
  'x, y, z'

loop_
  _atom_site_type_symbol
  _atom_site_label
  _atom_site_symmetry_multiplicity
  _atom_site_fract_x
  _atom_site_fract_y
  _atom_site_fract_z
  _atom_site_occupancy
  Te  Te1       1.0  0.50057  0.25639  0.75696  1.0000
  Te  Te2       1.0  0.49943  0.74361  0.24304  1.0000
  Te  Te3       1.0  0.74361  0.50057  0.24418  1.0000
  Te  Te4       1.0  0.25639  0.49943  0.75582  1.0000
  Te  Te5       1.0  0.99943  0.75639  0.75582  1.0000
  Te  Te6       1.0  0.24361  0.99943  0.24304  1.0000
  Te  Te7       1.0  0.25000  0.75000  0.50000  1.0000
  Te  Te8       1.0  0.75000  0.25000  0.50000  1.0000
  Te  Te9       1.0  0.00057  0.24361  0.24418  1.0000
  Te  Te10      1.0  0.75639  0.00057  0.75696  1.0000
  S   S1        1.0  0.75164  0.25164  0.00328  1.0000
  S   S2        1.0  0.74836  0.75164  0.50000  1.0000
  S   S3        1.0  0.25164  0.24836  0.50000  1.0000
  S   S4        1.0  0.24836  0.74836  0.99672  1.0000
  S   S5        1.0  0.75000  0.75000  0.00000  1.0000
  S   S6        1.0  0.25000  0.25000  0.00000  1.0000
