data_image0
_chemical_formula_structural       N12Te
_chemical_formula_sum              "N12 Te1"
_cell_length_a       7.28618
_cell_length_b       7.28618
_cell_length_c       7.28618
_cell_angle_alpha    109.471
_cell_angle_beta     109.471
_cell_angle_gamma    109.471

_space_group_name_H-M_alt    "P 1"
_space_group_IT_number       1

loop_
  _space_group_symop_operation_xyz
  'x, y, z'

loop_
  _atom_site_type_symbol
  _atom_site_label
  _atom_site_symmetry_multiplicity
  _atom_site_fract_x
  _atom_site_fract_y
  _atom_site_fract_z
  _atom_site_occupancy
  N   N1        1.0  0.56631  0.74419  0.17788  1.0000
  N   N2        1.0  0.82212  0.43369  0.25581  1.0000
  N   N3        1.0  0.38844  0.82212  0.56631  1.0000
  N   N4        1.0  0.82212  0.56631  0.38844  1.0000
  N   N5        1.0  0.61156  0.17788  0.43369  1.0000
  N   N6        1.0  0.17788  0.56631  0.74419  1.0000
  N   N7        1.0  0.74419  0.17788  0.56631  1.0000
  N   N8        1.0  0.25581  0.82212  0.43369  1.0000
  N   N9        1.0  0.17788  0.43369  0.61156  1.0000
  N   N10       1.0  0.56631  0.38844  0.82212  1.0000
  N   N11       1.0  0.43369  0.61156  0.17788  1.0000
  N   N12       1.0  0.43369  0.25581  0.82212  1.0000
  Te  Te1       1.0  0.00000  0.00000  0.00000  1.0000
