data_image0
_chemical_formula_structural       Se6Te2
_chemical_formula_sum              "Se6 Te2"
_cell_length_a       3.8885
_cell_length_b       7.10552
_cell_length_c       8.76562
_cell_angle_alpha    90
_cell_angle_beta     90
_cell_angle_gamma    90

_space_group_name_H-M_alt    "P 1"
_space_group_IT_number       1

loop_
  _space_group_symop_operation_xyz
  'x, y, z'

loop_
  _atom_site_type_symbol
  _atom_site_label
  _atom_site_symmetry_multiplicity
  _atom_site_fract_x
  _atom_site_fract_y
  _atom_site_fract_z
  _atom_site_occupancy
  Se  Se1       1.0  0.00000  0.39269  0.26177  1.0000
  Se  Se2       1.0  0.00000  0.39269  0.73823  1.0000
  Se  Se3       1.0  0.50000  0.60731  0.23823  1.0000
  Se  Se4       1.0  0.50000  0.60731  0.76177  1.0000
  Se  Se5       1.0  0.00000  0.91745  0.50000  1.0000
  Se  Se6       1.0  0.50000  0.08255  0.00000  1.0000
  Te  Te1       1.0  0.00000  0.83322  0.00000  1.0000
  Te  Te2       1.0  0.50000  0.16678  0.50000  1.0000
