data_image0
_chemical_formula_structural       Te4Se12
_chemical_formula_sum              "Te4 Se12"
_cell_length_a       9.80927
_cell_length_b       9.80927
_cell_length_c       5.74096
_cell_angle_alpha    90
_cell_angle_beta     90
_cell_angle_gamma    134.724

_space_group_name_H-M_alt    "P 1"
_space_group_IT_number       1

loop_
  _space_group_symop_operation_xyz
  'x, y, z'

loop_
  _atom_site_type_symbol
  _atom_site_label
  _atom_site_symmetry_multiplicity
  _atom_site_fract_x
  _atom_site_fract_y
  _atom_site_fract_z
  _atom_site_occupancy
  Te  Te1       1.0  0.63165  0.36835  0.00000  1.0000
  Te  Te2       1.0  0.36835  0.63165  0.00000  1.0000
  Te  Te3       1.0  0.13165  0.86835  0.50000  1.0000
  Te  Te4       1.0  0.86835  0.13165  0.50000  1.0000
  Se  Se1       1.0  0.75072  0.75072  0.00224  1.0000
  Se  Se2       1.0  0.25072  0.25072  0.49776  1.0000
  Se  Se3       1.0  0.74928  0.74928  0.50224  1.0000
  Se  Se4       1.0  0.39513  0.60487  0.50000  1.0000
  Se  Se5       1.0  0.01579  0.51579  0.75000  1.0000
  Se  Se6       1.0  0.89513  0.10487  0.00000  1.0000
  Se  Se7       1.0  0.98421  0.48421  0.25000  1.0000
  Se  Se8       1.0  0.24928  0.24928  0.99776  1.0000
  Se  Se9       1.0  0.60487  0.39513  0.50000  1.0000
  Se  Se10      1.0  0.10487  0.89513  0.00000  1.0000
  Se  Se11      1.0  0.48421  0.98421  0.25000  1.0000
  Se  Se12      1.0  0.51579  0.01579  0.75000  1.0000
