data_image0
_chemical_formula_structural       Te6Se10
_chemical_formula_sum              "Te6 Se10"
_cell_length_a       4.32439
_cell_length_b       9.70388
_cell_length_c       12.7295
_cell_angle_alpha    90
_cell_angle_beta     90
_cell_angle_gamma    90

_space_group_name_H-M_alt    "P 1"
_space_group_IT_number       1

loop_
  _space_group_symop_operation_xyz
  'x, y, z'

loop_
  _atom_site_type_symbol
  _atom_site_label
  _atom_site_symmetry_multiplicity
  _atom_site_fract_x
  _atom_site_fract_y
  _atom_site_fract_z
  _atom_site_occupancy
  Te  Te1       1.0  0.50000  0.32820  0.91689  1.0000
  Te  Te2       1.0  0.50000  0.82820  0.58311  1.0000
  Te  Te3       1.0  0.00000  0.50000  0.50000  1.0000
  Te  Te4       1.0  0.00000  0.00000  0.00000  1.0000
  Te  Te5       1.0  0.50000  0.67180  0.08311  1.0000
  Te  Te6       1.0  0.50000  0.17180  0.41689  1.0000
  Se  Se1       1.0  0.50000  0.68079  0.41891  1.0000
  Se  Se2       1.0  0.50000  0.31921  0.58109  1.0000
  Se  Se3       1.0  0.00000  0.16350  0.82449  1.0000
  Se  Se4       1.0  0.50000  0.81921  0.91891  1.0000
  Se  Se5       1.0  0.00000  0.33650  0.32449  1.0000
  Se  Se6       1.0  0.00000  0.83650  0.17551  1.0000
  Se  Se7       1.0  0.00000  0.66350  0.67551  1.0000
  Se  Se8       1.0  0.00000  0.50000  0.00000  1.0000
  Se  Se9       1.0  0.00000  0.00000  0.50000  1.0000
  Se  Se10      1.0  0.50000  0.18079  0.08109  1.0000
