data_image0
_chemical_formula_structural       Se12Te
_chemical_formula_sum              "Se12 Te1"
_cell_length_a       7.72464
_cell_length_b       7.72464
_cell_length_c       7.72464
_cell_angle_alpha    109.471
_cell_angle_beta     109.471
_cell_angle_gamma    109.471

_space_group_name_H-M_alt    "P 1"
_space_group_IT_number       1

loop_
  _space_group_symop_operation_xyz
  'x, y, z'

loop_
  _atom_site_type_symbol
  _atom_site_label
  _atom_site_symmetry_multiplicity
  _atom_site_fract_x
  _atom_site_fract_y
  _atom_site_fract_z
  _atom_site_occupancy
  Se  Se1       1.0  0.64477  0.77545  0.13067  1.0000
  Se  Se2       1.0  0.86933  0.35523  0.22455  1.0000
  Se  Se3       1.0  0.51410  0.86933  0.64477  1.0000
  Se  Se4       1.0  0.86933  0.64477  0.51410  1.0000
  Se  Se5       1.0  0.48590  0.13067  0.35523  1.0000
  Se  Se6       1.0  0.13067  0.64477  0.77545  1.0000
  Se  Se7       1.0  0.77545  0.13067  0.64477  1.0000
  Se  Se8       1.0  0.22455  0.86933  0.35523  1.0000
  Se  Se9       1.0  0.13067  0.35523  0.48590  1.0000
  Se  Se10      1.0  0.64477  0.51410  0.86933  1.0000
  Se  Se11      1.0  0.35523  0.48590  0.13067  1.0000
  Se  Se12      1.0  0.35523  0.22455  0.86933  1.0000
  Te  Te1       1.0  0.00000  0.00000  0.00000  1.0000
