data_image0
_chemical_formula_structural       Tl8Te4
_chemical_formula_sum              "Tl8 Te4"
_cell_length_a       12.9981
_cell_length_b       12.1693
_cell_length_c       6.48866
_cell_angle_alpha    82.269
_cell_angle_beta     68.0834
_cell_angle_gamma    29.6476

_space_group_name_H-M_alt    "P 1"
_space_group_IT_number       1

loop_
  _space_group_symop_operation_xyz
  'x, y, z'

loop_
  _atom_site_type_symbol
  _atom_site_label
  _atom_site_symmetry_multiplicity
  _atom_site_fract_x
  _atom_site_fract_y
  _atom_site_fract_z
  _atom_site_occupancy
  Tl  Tl1       1.0  0.57116  0.92884  0.57116  1.0000
  Tl  Tl2       1.0  0.92884  0.57116  0.92884  1.0000
  Tl  Tl3       1.0  0.92381  0.92381  0.07619  1.0000
  Tl  Tl4       1.0  0.32116  0.67884  0.32116  1.0000
  Tl  Tl5       1.0  0.07619  0.07619  0.92381  1.0000
  Tl  Tl6       1.0  0.17381  0.17381  0.32619  1.0000
  Tl  Tl7       1.0  0.67884  0.32116  0.67884  1.0000
  Tl  Tl8       1.0  0.32619  0.32619  0.17381  1.0000
  Te  Te1       1.0  0.62758  0.62758  0.87242  1.0000
  Te  Te2       1.0  0.37758  0.37758  0.62242  1.0000
  Te  Te3       1.0  0.87242  0.87242  0.62758  1.0000
  Te  Te4       1.0  0.62242  0.62242  0.37758  1.0000
