data_image0
_chemical_formula_structural       Te9Tl6
_chemical_formula_sum              "Te9 Tl6"
_cell_length_a       7.77292
_cell_length_b       7.77292
_cell_length_c       16.8234
_cell_angle_alpha    90.3188
_cell_angle_beta     90.3188
_cell_angle_gamma    32.5766

_space_group_name_H-M_alt    "P 1"
_space_group_IT_number       1

loop_
  _space_group_symop_operation_xyz
  'x, y, z'

loop_
  _atom_site_type_symbol
  _atom_site_label
  _atom_site_symmetry_multiplicity
  _atom_site_fract_x
  _atom_site_fract_y
  _atom_site_fract_z
  _atom_site_occupancy
  Te  Te1       1.0  0.80268  0.80268  0.33577  1.0000
  Te  Te2       1.0  0.19732  0.19732  0.66423  1.0000
  Te  Te3       1.0  0.18064  0.18064  0.99928  1.0000
  Te  Te4       1.0  0.81936  0.81936  0.00072  1.0000
  Te  Te5       1.0  0.14830  0.14830  0.33471  1.0000
  Te  Te6       1.0  0.85170  0.85170  0.66529  1.0000
  Te  Te7       1.0  0.50773  0.50773  0.33248  1.0000
  Te  Te8       1.0  0.49227  0.49227  0.66752  1.0000
  Te  Te9       1.0  0.50000  0.50000  0.00000  1.0000
  Tl  Tl1       1.0  0.35806  0.35806  0.48435  1.0000
  Tl  Tl2       1.0  0.64194  0.64194  0.51565  1.0000
  Tl  Tl3       1.0  0.32154  0.32154  0.18321  1.0000
  Tl  Tl4       1.0  0.67846  0.67846  0.81679  1.0000
  Tl  Tl5       1.0  0.02750  0.02750  0.15188  1.0000
  Tl  Tl6       1.0  0.97250  0.97250  0.84812  1.0000
