data_image0
_chemical_formula_structural       Se4Te4
_chemical_formula_sum              "Se4 Te4"
_cell_length_a       6.9246
_cell_length_b       6.9246
_cell_length_c       6.9246
_cell_angle_alpha    90
_cell_angle_beta     90
_cell_angle_gamma    90

_space_group_name_H-M_alt    "P 1"
_space_group_IT_number       1

loop_
  _space_group_symop_operation_xyz
  'x, y, z'

loop_
  _atom_site_type_symbol
  _atom_site_label
  _atom_site_symmetry_multiplicity
  _atom_site_fract_x
  _atom_site_fract_y
  _atom_site_fract_z
  _atom_site_occupancy
  Se  Se1       1.0  0.80219  0.80219  0.80219  1.0000
  Se  Se2       1.0  0.69781  0.19781  0.30219  1.0000
  Se  Se3       1.0  0.30219  0.69781  0.19781  1.0000
  Se  Se4       1.0  0.19781  0.30219  0.69781  1.0000
  Te  Te1       1.0  0.00731  0.00731  0.00731  1.0000
  Te  Te2       1.0  0.49269  0.99269  0.50731  1.0000
  Te  Te3       1.0  0.50731  0.49269  0.99269  1.0000
  Te  Te4       1.0  0.99269  0.50731  0.49269  1.0000
