data_image0
_chemical_formula_structural       Se10Te6
_chemical_formula_sum              "Se10 Te6"
_cell_length_a       8.67014
_cell_length_b       8.67014
_cell_length_c       8.67014
_cell_angle_alpha    126.601
_cell_angle_beta     126.601
_cell_angle_gamma    78.9029

_space_group_name_H-M_alt    "P 1"
_space_group_IT_number       1

loop_
  _space_group_symop_operation_xyz
  'x, y, z'

loop_
  _atom_site_type_symbol
  _atom_site_label
  _atom_site_symmetry_multiplicity
  _atom_site_fract_x
  _atom_site_fract_y
  _atom_site_fract_z
  _atom_site_occupancy
  Se  Se1       1.0  0.51433  0.69041  0.50000  1.0000
  Se  Se2       1.0  0.48567  0.30959  0.50000  1.0000
  Se  Se3       1.0  0.50000  0.50000  0.00000  1.0000
  Se  Se4       1.0  0.00000  0.00000  0.00000  1.0000
  Se  Se5       1.0  0.19041  0.01433  0.50000  1.0000
  Se  Se6       1.0  0.01433  0.51433  0.82393  1.0000
  Se  Se7       1.0  0.69041  0.19041  0.17607  1.0000
  Se  Se8       1.0  0.30959  0.80959  0.82393  1.0000
  Se  Se9       1.0  0.98567  0.48567  0.17607  1.0000
  Se  Se10      1.0  0.80959  0.98567  0.50000  1.0000
  Te  Te1       1.0  0.82300  0.67700  0.50000  1.0000
  Te  Te2       1.0  0.67700  0.17700  0.85401  1.0000
  Te  Te3       1.0  0.32300  0.82300  0.14599  1.0000
  Te  Te4       1.0  0.17700  0.32300  0.50000  1.0000
  Te  Te5       1.0  0.25000  0.25000  0.00000  1.0000
  Te  Te6       1.0  0.75000  0.75000  0.00000  1.0000
