data_image0
_chemical_formula_structural       TeTl4
_chemical_formula_sum              "Te1 Tl4"
_cell_length_a       6.39581
_cell_length_b       6.39581
_cell_length_c       6.39581
_cell_angle_alpha    97.2777
_cell_angle_beta     97.2777
_cell_angle_gamma    138.3

_space_group_name_H-M_alt    "P 1"
_space_group_IT_number       1

loop_
  _space_group_symop_operation_xyz
  'x, y, z'

loop_
  _atom_site_type_symbol
  _atom_site_label
  _atom_site_symmetry_multiplicity
  _atom_site_fract_x
  _atom_site_fract_y
  _atom_site_fract_z
  _atom_site_occupancy
  Te  Te1       1.0  0.00000  0.00000  0.00000  1.0000
  Tl  Tl1       1.0  0.60316  0.79081  0.39397  1.0000
  Tl  Tl2       1.0  0.39684  0.20919  0.60603  1.0000
  Tl  Tl3       1.0  0.20919  0.60316  0.81235  1.0000
  Tl  Tl4       1.0  0.79081  0.39684  0.18765  1.0000
