data_image0
_chemical_formula_structural       Se9Te13
_chemical_formula_sum              "Se9 Te13"
_cell_length_a       9.16504
_cell_length_b       9.16504
_cell_length_c       8.21961
_cell_angle_alpha    90
_cell_angle_beta     90
_cell_angle_gamma    120

_space_group_name_H-M_alt    "P 1"
_space_group_IT_number       1

loop_
  _space_group_symop_operation_xyz
  'x, y, z'

loop_
  _atom_site_type_symbol
  _atom_site_label
  _atom_site_symmetry_multiplicity
  _atom_site_fract_x
  _atom_site_fract_y
  _atom_site_fract_z
  _atom_site_occupancy
  Se  Se1       1.0  0.00000  0.00000  0.50000  1.0000
  Se  Se2       1.0  0.33333  0.66667  0.86190  1.0000
  Se  Se3       1.0  0.66667  0.33333  0.13810  1.0000
  Se  Se4       1.0  0.20552  0.79448  0.25164  1.0000
  Se  Se5       1.0  0.20552  0.41103  0.25164  1.0000
  Se  Se6       1.0  0.58897  0.79448  0.25164  1.0000
  Se  Se7       1.0  0.41103  0.20552  0.74836  1.0000
  Se  Se8       1.0  0.79448  0.58897  0.74836  1.0000
  Se  Se9       1.0  0.79448  0.20552  0.74836  1.0000
  Te  Te1       1.0  0.00000  0.00000  0.00000  1.0000
  Te  Te2       1.0  0.50000  0.00000  0.00000  1.0000
  Te  Te3       1.0  0.00000  0.50000  0.00000  1.0000
  Te  Te4       1.0  0.50000  0.50000  0.00000  1.0000
  Te  Te5       1.0  0.50000  0.00000  0.50000  1.0000
  Te  Te6       1.0  0.00000  0.50000  0.50000  1.0000
  Te  Te7       1.0  0.50000  0.50000  0.50000  1.0000
  Te  Te8       1.0  0.14637  0.85363  0.72022  1.0000
  Te  Te9       1.0  0.14637  0.29274  0.72022  1.0000
  Te  Te10      1.0  0.70726  0.85363  0.72022  1.0000
  Te  Te11      1.0  0.29274  0.14637  0.27978  1.0000
  Te  Te12      1.0  0.85363  0.70726  0.27978  1.0000
  Te  Te13      1.0  0.85363  0.14637  0.27978  1.0000
