data_image0
_chemical_formula_structural       Tl6Te2
_chemical_formula_sum              "Tl6 Te2"
_cell_length_a       5.81533
_cell_length_b       6.51361
_cell_length_c       6.97957
_cell_angle_alpha    90
_cell_angle_beta     90
_cell_angle_gamma    90

_space_group_name_H-M_alt    "P 1"
_space_group_IT_number       1

loop_
  _space_group_symop_operation_xyz
  'x, y, z'

loop_
  _atom_site_type_symbol
  _atom_site_label
  _atom_site_symmetry_multiplicity
  _atom_site_fract_x
  _atom_site_fract_y
  _atom_site_fract_z
  _atom_site_occupancy
  Tl  Tl1       1.0  0.00000  0.32935  0.25302  1.0000
  Tl  Tl2       1.0  0.00000  0.32935  0.74698  1.0000
  Tl  Tl3       1.0  0.50000  0.67065  0.24698  1.0000
  Tl  Tl4       1.0  0.50000  0.67065  0.75302  1.0000
  Tl  Tl5       1.0  0.00000  0.84683  0.50000  1.0000
  Tl  Tl6       1.0  0.50000  0.15317  0.00000  1.0000
  Te  Te1       1.0  0.00000  0.86648  0.00000  1.0000
  Te  Te2       1.0  0.50000  0.13352  0.50000  1.0000
