data_image0
_chemical_formula_structural       Te7Tl20
_chemical_formula_sum              "Te7 Tl20"
_cell_length_a       9.89493
_cell_length_b       9.89493
_cell_length_c       9.89493
_cell_angle_alpha    98.0036
_cell_angle_beta     98.0036
_cell_angle_gamma    98.0036

_space_group_name_H-M_alt    "P 1"
_space_group_IT_number       1

loop_
  _space_group_symop_operation_xyz
  'x, y, z'

loop_
  _atom_site_type_symbol
  _atom_site_label
  _atom_site_symmetry_multiplicity
  _atom_site_fract_x
  _atom_site_fract_y
  _atom_site_fract_z
  _atom_site_occupancy
  Te  Te1       1.0  0.00000  0.00000  0.00000  1.0000
  Te  Te2       1.0  0.48079  0.90215  0.73378  1.0000
  Te  Te3       1.0  0.90215  0.73378  0.48079  1.0000
  Te  Te4       1.0  0.73378  0.48079  0.90215  1.0000
  Te  Te5       1.0  0.51921  0.09785  0.26622  1.0000
  Te  Te6       1.0  0.09785  0.26622  0.51921  1.0000
  Te  Te7       1.0  0.26622  0.51921  0.09785  1.0000
  Tl  Tl1       1.0  0.37391  0.37391  0.37391  1.0000
  Tl  Tl2       1.0  0.62609  0.62609  0.62609  1.0000
  Tl  Tl3       1.0  0.99844  0.33048  0.21001  1.0000
  Tl  Tl4       1.0  0.33048  0.21001  0.99844  1.0000
  Tl  Tl5       1.0  0.21001  0.99844  0.33048  1.0000
  Tl  Tl6       1.0  0.00156  0.66952  0.78999  1.0000
  Tl  Tl7       1.0  0.66952  0.78999  0.00156  1.0000
  Tl  Tl8       1.0  0.78999  0.00156  0.66952  1.0000
  Tl  Tl9       1.0  0.68704  0.15387  0.99968  1.0000
  Tl  Tl10      1.0  0.15387  0.99968  0.68704  1.0000
  Tl  Tl11      1.0  0.99968  0.68704  0.15387  1.0000
  Tl  Tl12      1.0  0.31296  0.84613  0.00032  1.0000
  Tl  Tl13      1.0  0.84613  0.00032  0.31296  1.0000
  Tl  Tl14      1.0  0.00032  0.31296  0.84613  1.0000
  Tl  Tl15      1.0  0.23291  0.67182  0.50392  1.0000
  Tl  Tl16      1.0  0.67182  0.50392  0.23291  1.0000
  Tl  Tl17      1.0  0.50392  0.23291  0.67182  1.0000
  Tl  Tl18      1.0  0.76709  0.32818  0.49608  1.0000
  Tl  Tl19      1.0  0.32818  0.49608  0.76709  1.0000
  Tl  Tl20      1.0  0.49608  0.76709  0.32818  1.0000
