data_image0
_chemical_formula_structural       Te2Se4
_chemical_formula_sum              "Te2 Se4"
_cell_length_a       7.11831
_cell_length_b       7.11831
_cell_length_c       3.83245
_cell_angle_alpha    90
_cell_angle_beta     90
_cell_angle_gamma    104.427

_space_group_name_H-M_alt    "P 1"
_space_group_IT_number       1

loop_
  _space_group_symop_operation_xyz
  'x, y, z'

loop_
  _atom_site_type_symbol
  _atom_site_label
  _atom_site_symmetry_multiplicity
  _atom_site_fract_x
  _atom_site_fract_y
  _atom_site_fract_z
  _atom_site_occupancy
  Te  Te1       1.0  0.18873  0.18873  0.75000  1.0000
  Te  Te2       1.0  0.81127  0.81127  0.25000  1.0000
  Se  Se1       1.0  0.55205  0.87932  0.75000  1.0000
  Se  Se2       1.0  0.87932  0.55205  0.75000  1.0000
  Se  Se3       1.0  0.12068  0.44795  0.25000  1.0000
  Se  Se4       1.0  0.44795  0.12068  0.25000  1.0000
