data_image0
_chemical_formula_structural       Te8Se4
_chemical_formula_sum              "Te8 Se4"
_cell_length_a       5.55558
_cell_length_b       8.82073
_cell_length_c       11.7185
_cell_angle_alpha    90
_cell_angle_beta     90
_cell_angle_gamma    90

_space_group_name_H-M_alt    "P 1"
_space_group_IT_number       1

loop_
  _space_group_symop_operation_xyz
  'x, y, z'

loop_
  _atom_site_type_symbol
  _atom_site_label
  _atom_site_symmetry_multiplicity
  _atom_site_fract_x
  _atom_site_fract_y
  _atom_site_fract_z
  _atom_site_occupancy
  Te  Te1       1.0  0.18392  0.14406  0.03004  1.0000
  Te  Te2       1.0  0.68392  0.85594  0.46996  1.0000
  Te  Te3       1.0  0.31608  0.64406  0.46996  1.0000
  Te  Te4       1.0  0.81608  0.35594  0.03004  1.0000
  Te  Te5       1.0  0.18392  0.64406  0.96996  1.0000
  Te  Te6       1.0  0.68392  0.35594  0.53004  1.0000
  Te  Te7       1.0  0.31608  0.14406  0.53004  1.0000
  Te  Te8       1.0  0.81608  0.85594  0.96996  1.0000
  Se  Se1       1.0  0.50000  0.75000  0.82843  1.0000
  Se  Se2       1.0  0.00000  0.25000  0.67157  1.0000
  Se  Se3       1.0  0.50000  0.25000  0.17157  1.0000
  Se  Se4       1.0  0.00000  0.75000  0.32843  1.0000
