data_image0
_chemical_formula_structural       Se8Te4
_chemical_formula_sum              "Se8 Te4"
_cell_length_a       7.9893
_cell_length_b       6.78723
_cell_length_c       6.89554
_cell_angle_alpha    79.9256
_cell_angle_beta     90
_cell_angle_gamma    90

_space_group_name_H-M_alt    "P 1"
_space_group_IT_number       1

loop_
  _space_group_symop_operation_xyz
  'x, y, z'

loop_
  _atom_site_type_symbol
  _atom_site_label
  _atom_site_symmetry_multiplicity
  _atom_site_fract_x
  _atom_site_fract_y
  _atom_site_fract_z
  _atom_site_occupancy
  Se  Se1       1.0  0.37433  0.26264  0.30528  1.0000
  Se  Se2       1.0  0.62567  0.26264  0.80528  1.0000
  Se  Se3       1.0  0.37482  0.76511  0.72343  1.0000
  Se  Se4       1.0  0.87500  0.26303  0.30461  1.0000
  Se  Se5       1.0  0.62518  0.76511  0.22343  1.0000
  Se  Se6       1.0  0.12500  0.26303  0.80461  1.0000
  Se  Se7       1.0  0.87449  0.76497  0.72305  1.0000
  Se  Se8       1.0  0.12551  0.76497  0.22305  1.0000
  Te  Te1       1.0  0.37474  0.01325  0.01421  1.0000
  Te  Te2       1.0  0.62526  0.01325  0.51421  1.0000
  Te  Te3       1.0  0.87491  0.01431  0.01272  1.0000
  Te  Te4       1.0  0.12509  0.01431  0.51272  1.0000
