data_image0
_chemical_formula_structural       Se10Te4
_chemical_formula_sum              "Se10 Te4"
_cell_length_a       8.83441
_cell_length_b       8.83441
_cell_length_c       8.65638
_cell_angle_alpha    71.4727
_cell_angle_beta     71.4727
_cell_angle_gamma    53.6627

_space_group_name_H-M_alt    "P 1"
_space_group_IT_number       1

loop_
  _space_group_symop_operation_xyz
  'x, y, z'

loop_
  _atom_site_type_symbol
  _atom_site_label
  _atom_site_symmetry_multiplicity
  _atom_site_fract_x
  _atom_site_fract_y
  _atom_site_fract_z
  _atom_site_occupancy
  Se  Se1       1.0  0.23606  0.76394  0.00000  1.0000
  Se  Se2       1.0  0.76394  0.23606  0.00000  1.0000
  Se  Se3       1.0  0.63082  0.63082  0.29524  1.0000
  Se  Se4       1.0  0.36918  0.36918  0.70476  1.0000
  Se  Se5       1.0  0.97445  0.97445  0.79882  1.0000
  Se  Se6       1.0  0.02555  0.02555  0.20118  1.0000
  Se  Se7       1.0  0.42860  0.92929  0.83289  1.0000
  Se  Se8       1.0  0.07071  0.57140  0.16711  1.0000
  Se  Se9       1.0  0.92929  0.42860  0.83289  1.0000
  Se  Se10      1.0  0.57140  0.07071  0.16711  1.0000
  Te  Te1       1.0  0.21336  0.21336  0.99571  1.0000
  Te  Te2       1.0  0.78664  0.78664  0.00429  1.0000
  Te  Te3       1.0  0.51583  0.51583  0.75694  1.0000
  Te  Te4       1.0  0.48417  0.48417  0.24306  1.0000
