data_image0
_chemical_formula_structural       Te3Se4
_chemical_formula_sum              "Te3 Se4"
_cell_length_a       7.90354
_cell_length_b       7.90354
_cell_length_c       6.78667
_cell_angle_alpha    69.7773
_cell_angle_beta     69.7773
_cell_angle_gamma    32.7858

_space_group_name_H-M_alt    "P 1"
_space_group_IT_number       1

loop_
  _space_group_symop_operation_xyz
  'x, y, z'

loop_
  _atom_site_type_symbol
  _atom_site_label
  _atom_site_symmetry_multiplicity
  _atom_site_fract_x
  _atom_site_fract_y
  _atom_site_fract_z
  _atom_site_occupancy
  Te  Te1       1.0  0.00000  0.00000  0.00000  1.0000
  Te  Te2       1.0  0.25894  0.25894  0.73917  1.0000
  Te  Te3       1.0  0.74106  0.74106  0.26083  1.0000
  Se  Se1       1.0  0.13017  0.13017  0.53888  1.0000
  Se  Se2       1.0  0.86983  0.86983  0.46112  1.0000
  Se  Se3       1.0  0.63523  0.63523  0.97300  1.0000
  Se  Se4       1.0  0.36477  0.36477  0.02700  1.0000
