data_image0
_chemical_formula_structural       Se4Te2
_chemical_formula_sum              "Se4 Te2"
_cell_length_a       5.8998
_cell_length_b       5.8998
_cell_length_c       5.8998
_cell_angle_alpha    112.855
_cell_angle_beta     112.855
_cell_angle_gamma    102.897

_space_group_name_H-M_alt    "P 1"
_space_group_IT_number       1

loop_
  _space_group_symop_operation_xyz
  'x, y, z'

loop_
  _atom_site_type_symbol
  _atom_site_label
  _atom_site_symmetry_multiplicity
  _atom_site_fract_x
  _atom_site_fract_y
  _atom_site_fract_z
  _atom_site_occupancy
  Se  Se1       1.0  0.36909  0.86909  0.23818  1.0000
  Se  Se2       1.0  0.13091  0.36909  0.50000  1.0000
  Se  Se3       1.0  0.86909  0.63091  0.50000  1.0000
  Se  Se4       1.0  0.63091  0.13091  0.76182  1.0000
  Te  Te1       1.0  0.75000  0.75000  1.00000  1.0000
  Te  Te2       1.0  0.25000  0.25000  0.00000  1.0000
