data_image0
_chemical_formula_structural       Te8Se8
_chemical_formula_sum              "Te8 Se8"
_cell_length_a       7.90922
_cell_length_b       7.90922
_cell_length_c       8.32025
_cell_angle_alpha    90
_cell_angle_beta     90
_cell_angle_gamma    90

_space_group_name_H-M_alt    "P 1"
_space_group_IT_number       1

loop_
  _space_group_symop_operation_xyz
  'x, y, z'

loop_
  _atom_site_type_symbol
  _atom_site_label
  _atom_site_symmetry_multiplicity
  _atom_site_fract_x
  _atom_site_fract_y
  _atom_site_fract_z
  _atom_site_occupancy
  Te  Te1       1.0  0.59567  0.74932  0.00000  1.0000
  Te  Te2       1.0  0.25068  0.59567  0.50000  1.0000
  Te  Te3       1.0  0.74932  0.40433  0.50000  1.0000
  Te  Te4       1.0  0.40433  0.25068  0.00000  1.0000
  Te  Te5       1.0  0.50000  0.00000  0.50000  1.0000
  Te  Te6       1.0  0.00000  0.50000  0.00000  1.0000
  Te  Te7       1.0  0.00000  0.00000  0.75000  1.0000
  Te  Te8       1.0  0.00000  0.00000  0.25000  1.0000
  Se  Se1       1.0  0.18099  0.31087  0.76644  1.0000
  Se  Se2       1.0  0.68913  0.18099  0.26644  1.0000
  Se  Se3       1.0  0.31087  0.81901  0.26644  1.0000
  Se  Se4       1.0  0.81901  0.68913  0.76644  1.0000
  Se  Se5       1.0  0.81901  0.68913  0.23356  1.0000
  Se  Se6       1.0  0.31087  0.81901  0.73356  1.0000
  Se  Se7       1.0  0.68913  0.18099  0.73356  1.0000
  Se  Se8       1.0  0.18099  0.31087  0.23356  1.0000
