data_image0
_chemical_formula_structural       Te2Se4Te
_chemical_formula_sum              "Te3 Se4"
_cell_length_a       13.0562
_cell_length_b       13.0562
_cell_length_c       13.0562
_cell_angle_alpha    162.593
_cell_angle_beta     162.593
_cell_angle_gamma    24.714

_space_group_name_H-M_alt    "P 1"
_space_group_IT_number       1

loop_
  _space_group_symop_operation_xyz
  'x, y, z'

loop_
  _atom_site_type_symbol
  _atom_site_label
  _atom_site_symmetry_multiplicity
  _atom_site_fract_x
  _atom_site_fract_y
  _atom_site_fract_z
  _atom_site_occupancy
  Te  Te1       1.0  0.35578  0.35578  0.00000  1.0000
  Te  Te2       1.0  0.64422  0.64422  0.00000  1.0000
  Se  Se1       1.0  0.89025  0.89025  0.00000  1.0000
  Se  Se2       1.0  0.10975  0.10975  0.00000  1.0000
  Se  Se3       1.0  0.75000  0.25000  0.50000  1.0000
  Se  Se4       1.0  0.25000  0.75000  0.50000  1.0000
  Te  Te3       1.0  0.00000  0.00000  0.00000  1.0000
