data_image0
_chemical_formula_structural       Te16Se24
_chemical_formula_sum              "Te16 Se24"
_cell_length_a       7.39597
_cell_length_b       9.48431
_cell_length_c       20.2481
_cell_angle_alpha    90
_cell_angle_beta     90
_cell_angle_gamma    90

_space_group_name_H-M_alt    "P 1"
_space_group_IT_number       1

loop_
  _space_group_symop_operation_xyz
  'x, y, z'

loop_
  _atom_site_type_symbol
  _atom_site_label
  _atom_site_symmetry_multiplicity
  _atom_site_fract_x
  _atom_site_fract_y
  _atom_site_fract_z
  _atom_site_occupancy
  Te  Te1       1.0  0.87382  0.75000  0.94567  1.0000
  Te  Te2       1.0  0.37382  0.25000  0.55433  1.0000
  Te  Te3       1.0  0.12618  0.25000  0.05433  1.0000
  Te  Te4       1.0  0.62618  0.75000  0.44567  1.0000
  Te  Te5       1.0  0.36967  0.75000  0.94432  1.0000
  Te  Te6       1.0  0.86967  0.25000  0.55568  1.0000
  Te  Te7       1.0  0.63033  0.25000  0.05568  1.0000
  Te  Te8       1.0  0.13033  0.75000  0.44432  1.0000
  Te  Te9       1.0  0.63445  0.44651  0.31357  1.0000
  Te  Te10      1.0  0.13445  0.55349  0.18643  1.0000
  Te  Te11      1.0  0.36555  0.94651  0.68643  1.0000
  Te  Te12      1.0  0.86555  0.05349  0.81357  1.0000
  Te  Te13      1.0  0.36555  0.55349  0.68643  1.0000
  Te  Te14      1.0  0.86555  0.44651  0.81357  1.0000
  Te  Te15      1.0  0.63445  0.05349  0.31357  1.0000
  Te  Te16      1.0  0.13445  0.94651  0.18643  1.0000
  Se  Se1       1.0  0.88759  0.75000  0.20527  1.0000
  Se  Se2       1.0  0.38759  0.25000  0.29473  1.0000
  Se  Se3       1.0  0.11241  0.25000  0.79473  1.0000
  Se  Se4       1.0  0.61241  0.75000  0.70527  1.0000
  Se  Se5       1.0  0.38376  0.75000  0.19775  1.0000
  Se  Se6       1.0  0.88376  0.25000  0.30225  1.0000
  Se  Se7       1.0  0.61624  0.25000  0.80225  1.0000
  Se  Se8       1.0  0.11624  0.75000  0.69775  1.0000
  Se  Se9       1.0  0.87975  0.04731  0.09120  1.0000
  Se  Se10      1.0  0.37975  0.95269  0.40880  1.0000
  Se  Se11      1.0  0.12025  0.54731  0.90880  1.0000
  Se  Se12      1.0  0.62025  0.45269  0.59120  1.0000
  Se  Se13      1.0  0.12025  0.95269  0.90880  1.0000
  Se  Se14      1.0  0.62025  0.04731  0.59120  1.0000
  Se  Se15      1.0  0.87975  0.45269  0.09120  1.0000
  Se  Se16      1.0  0.37975  0.54731  0.40880  1.0000
  Se  Se17      1.0  0.37767  0.04743  0.08772  1.0000
  Se  Se18      1.0  0.87767  0.95257  0.41228  1.0000
  Se  Se19      1.0  0.62233  0.54743  0.91228  1.0000
  Se  Se20      1.0  0.12233  0.45257  0.58772  1.0000
  Se  Se21      1.0  0.62233  0.95257  0.91228  1.0000
  Se  Se22      1.0  0.12233  0.04743  0.58772  1.0000
  Se  Se23      1.0  0.37767  0.45257  0.08772  1.0000
  Se  Se24      1.0  0.87767  0.54743  0.41228  1.0000
