data_image0
_chemical_formula_structural       Tl9Te13
_chemical_formula_sum              "Tl9 Te13"
_cell_length_a       11.0314
_cell_length_b       11.0314
_cell_length_c       6.93885
_cell_angle_alpha    90
_cell_angle_beta     90
_cell_angle_gamma    120

_space_group_name_H-M_alt    "P 1"
_space_group_IT_number       1

loop_
  _space_group_symop_operation_xyz
  'x, y, z'

loop_
  _atom_site_type_symbol
  _atom_site_label
  _atom_site_symmetry_multiplicity
  _atom_site_fract_x
  _atom_site_fract_y
  _atom_site_fract_z
  _atom_site_occupancy
  Tl  Tl1       1.0  0.00000  0.00000  0.50000  1.0000
  Tl  Tl2       1.0  0.33333  0.66667  0.74991  1.0000
  Tl  Tl3       1.0  0.66667  0.33333  0.25009  1.0000
  Tl  Tl4       1.0  0.19267  0.80733  0.25349  1.0000
  Tl  Tl5       1.0  0.19267  0.38535  0.25349  1.0000
  Tl  Tl6       1.0  0.61465  0.80733  0.25349  1.0000
  Tl  Tl7       1.0  0.38535  0.19267  0.74651  1.0000
  Tl  Tl8       1.0  0.80733  0.61465  0.74651  1.0000
  Tl  Tl9       1.0  0.80733  0.19267  0.74651  1.0000
  Te  Te1       1.0  0.00000  0.00000  0.00000  1.0000
  Te  Te2       1.0  0.50000  0.00000  0.00000  1.0000
  Te  Te3       1.0  0.00000  0.50000  0.00000  1.0000
  Te  Te4       1.0  0.50000  0.50000  0.00000  1.0000
  Te  Te5       1.0  0.50000  0.00000  0.50000  1.0000
  Te  Te6       1.0  0.00000  0.50000  0.50000  1.0000
  Te  Te7       1.0  0.50000  0.50000  0.50000  1.0000
  Te  Te8       1.0  0.13377  0.86623  0.76185  1.0000
  Te  Te9       1.0  0.13377  0.26753  0.76185  1.0000
  Te  Te10      1.0  0.73247  0.86623  0.76185  1.0000
  Te  Te11      1.0  0.26753  0.13377  0.23815  1.0000
  Te  Te12      1.0  0.86623  0.73247  0.23815  1.0000
  Te  Te13      1.0  0.86623  0.13377  0.23815  1.0000
