data_image0
_chemical_formula_structural       Te9Se13
_chemical_formula_sum              "Te9 Se13"
_cell_length_a       9.24605
_cell_length_b       9.24605
_cell_length_c       11.1129
_cell_angle_alpha    58.7257
_cell_angle_beta     58.7257
_cell_angle_gamma    59.574

_space_group_name_H-M_alt    "P 1"
_space_group_IT_number       1

loop_
  _space_group_symop_operation_xyz
  'x, y, z'

loop_
  _atom_site_type_symbol
  _atom_site_label
  _atom_site_symmetry_multiplicity
  _atom_site_fract_x
  _atom_site_fract_y
  _atom_site_fract_z
  _atom_site_occupancy
  Te  Te1       1.0  0.21696  0.21696  0.18863  1.0000
  Te  Te2       1.0  0.72828  0.14693  0.32471  1.0000
  Te  Te3       1.0  0.88454  0.88454  0.98255  1.0000
  Te  Te4       1.0  0.11546  0.11546  0.01745  1.0000
  Te  Te5       1.0  0.50000  0.50000  0.50000  1.0000
  Te  Te6       1.0  0.78304  0.78304  0.81137  1.0000
  Te  Te7       1.0  0.14693  0.72828  0.32471  1.0000
  Te  Te8       1.0  0.85307  0.27172  0.67529  1.0000
  Te  Te9       1.0  0.27172  0.85307  0.67529  1.0000
  Se  Se1       1.0  0.54034  0.12634  0.61229  1.0000
  Se  Se2       1.0  0.12634  0.54034  0.61229  1.0000
  Se  Se3       1.0  0.49483  0.49483  0.24794  1.0000
  Se  Se4       1.0  0.78122  0.78122  0.37446  1.0000
  Se  Se5       1.0  0.45966  0.87366  0.38771  1.0000
  Se  Se6       1.0  0.79283  0.20717  0.00000  1.0000
  Se  Se7       1.0  0.21878  0.21878  0.62554  1.0000
  Se  Se8       1.0  0.50517  0.50517  0.75206  1.0000
  Se  Se9       1.0  0.20717  0.79283  0.00000  1.0000
  Se  Se10      1.0  0.00000  0.00000  0.50000  1.0000
  Se  Se11      1.0  0.87366  0.45966  0.38771  1.0000
  Se  Se12      1.0  0.00000  0.50000  0.00000  1.0000
  Se  Se13      1.0  0.50000  0.00000  0.00000  1.0000
