data_image0
_chemical_formula_structural       Te4Se8
_chemical_formula_sum              "Te4 Se8"
_cell_length_a       10.8449
_cell_length_b       10.8449
_cell_length_c       14.4181
_cell_angle_alpha    38.1114
_cell_angle_beta     38.1114
_cell_angle_gamma    21.0555

_space_group_name_H-M_alt    "P 1"
_space_group_IT_number       1

loop_
  _space_group_symop_operation_xyz
  'x, y, z'

loop_
  _atom_site_type_symbol
  _atom_site_label
  _atom_site_symmetry_multiplicity
  _atom_site_fract_x
  _atom_site_fract_y
  _atom_site_fract_z
  _atom_site_occupancy
  Te  Te1       1.0  0.71055  0.71055  0.93078  1.0000
  Te  Te2       1.0  0.28945  0.28945  0.06922  1.0000
  Te  Te3       1.0  0.35636  0.35636  0.45631  1.0000
  Te  Te4       1.0  0.64364  0.64364  0.54369  1.0000
  Se  Se1       1.0  0.07874  0.07874  0.02508  1.0000
  Se  Se2       1.0  0.92126  0.92126  0.97492  1.0000
  Se  Se3       1.0  0.86790  0.86790  0.57435  1.0000
  Se  Se4       1.0  0.13210  0.13210  0.42565  1.0000
  Se  Se5       1.0  0.63393  0.63393  0.19255  1.0000
  Se  Se6       1.0  0.36607  0.36607  0.80745  1.0000
  Se  Se7       1.0  0.14831  0.14831  0.68956  1.0000
  Se  Se8       1.0  0.85169  0.85169  0.31044  1.0000
