data_image0
_chemical_formula_structural       Te2Se6
_chemical_formula_sum              "Te2 Se6"
_cell_length_a       3.88437
_cell_length_b       7.14212
_cell_length_c       8.68658
_cell_angle_alpha    90
_cell_angle_beta     90
_cell_angle_gamma    90

_space_group_name_H-M_alt    "P 1"
_space_group_IT_number       1

loop_
  _space_group_symop_operation_xyz
  'x, y, z'

loop_
  _atom_site_type_symbol
  _atom_site_label
  _atom_site_symmetry_multiplicity
  _atom_site_fract_x
  _atom_site_fract_y
  _atom_site_fract_z
  _atom_site_occupancy
  Te  Te1       1.0  0.50000  0.66606  0.50000  1.0000
  Te  Te2       1.0  0.00000  0.33394  0.00000  1.0000
  Se  Se1       1.0  0.50000  0.10706  0.76052  1.0000
  Se  Se2       1.0  0.50000  0.10706  0.23948  1.0000
  Se  Se3       1.0  0.00000  0.89294  0.73948  1.0000
  Se  Se4       1.0  0.00000  0.89294  0.26052  1.0000
  Se  Se5       1.0  0.00000  0.41740  0.50000  1.0000
  Se  Se6       1.0  0.50000  0.58260  0.00000  1.0000
