data_image0
_chemical_formula_structural       Te10Se6
_chemical_formula_sum              "Te10 Se6"
_cell_length_a       8.61857
_cell_length_b       8.61857
_cell_length_c       8.61857
_cell_angle_alpha    100.792
_cell_angle_beta     100.792
_cell_angle_gamma    128.72

_space_group_name_H-M_alt    "P 1"
_space_group_IT_number       1

loop_
  _space_group_symop_operation_xyz
  'x, y, z'

loop_
  _atom_site_type_symbol
  _atom_site_label
  _atom_site_symmetry_multiplicity
  _atom_site_fract_x
  _atom_site_fract_y
  _atom_site_fract_z
  _atom_site_occupancy
  Te  Te1       1.0  0.58302  0.27474  0.85776  1.0000
  Te  Te2       1.0  0.41698  0.72526  0.14224  1.0000
  Te  Te3       1.0  0.72526  0.58302  0.30828  1.0000
  Te  Te4       1.0  0.27474  0.41698  0.69172  1.0000
  Te  Te5       1.0  0.91698  0.77474  0.69172  1.0000
  Te  Te6       1.0  0.22526  0.91698  0.14224  1.0000
  Te  Te7       1.0  0.25000  0.75000  0.50000  1.0000
  Te  Te8       1.0  0.75000  0.25000  0.50000  1.0000
  Te  Te9       1.0  0.08302  0.22526  0.30828  1.0000
  Te  Te10      1.0  0.77474  0.08302  0.85776  1.0000
  Se  Se1       1.0  0.82986  0.32986  0.15971  1.0000
  Se  Se2       1.0  0.67014  0.82986  0.50000  1.0000
  Se  Se3       1.0  0.32986  0.17014  0.50000  1.0000
  Se  Se4       1.0  0.17014  0.67014  0.84029  1.0000
  Se  Se5       1.0  0.75000  0.75000  0.00000  1.0000
  Se  Se6       1.0  0.25000  0.25000  0.00000  1.0000
