data_image0
_chemical_formula_structural       Te14Se20
_chemical_formula_sum              "Te14 Se20"
_cell_length_a       9.56252
_cell_length_b       9.56252
_cell_length_c       12.0696
_cell_angle_alpha    85.0893
_cell_angle_beta     85.0893
_cell_angle_gamma    101.766

_space_group_name_H-M_alt    "P 1"
_space_group_IT_number       1

loop_
  _space_group_symop_operation_xyz
  'x, y, z'

loop_
  _atom_site_type_symbol
  _atom_site_label
  _atom_site_symmetry_multiplicity
  _atom_site_fract_x
  _atom_site_fract_y
  _atom_site_fract_z
  _atom_site_occupancy
  Te  Te1       1.0  0.12520  0.47916  0.63367  1.0000
  Te  Te2       1.0  0.52230  0.52230  0.77071  1.0000
  Te  Te3       1.0  0.87025  0.16561  0.74217  1.0000
  Te  Te4       1.0  0.87480  0.52084  0.36633  1.0000
  Te  Te5       1.0  0.29074  0.29074  0.02755  1.0000
  Te  Te6       1.0  0.83439  0.12975  0.25783  1.0000
  Te  Te7       1.0  0.16143  0.16143  0.44819  1.0000
  Te  Te8       1.0  0.12975  0.83439  0.25783  1.0000
  Te  Te9       1.0  0.52084  0.87480  0.36633  1.0000
  Te  Te10      1.0  0.83857  0.83857  0.55181  1.0000
  Te  Te11      1.0  0.16561  0.87025  0.74217  1.0000
  Te  Te12      1.0  0.47770  0.47770  0.22929  1.0000
  Te  Te13      1.0  0.70926  0.70926  0.97245  1.0000
  Te  Te14      1.0  0.47916  0.12520  0.63367  1.0000
  Se  Se1       1.0  0.34875  0.05080  0.17833  1.0000
  Se  Se2       1.0  0.73117  0.47728  0.11185  1.0000
  Se  Se3       1.0  0.13112  0.86888  0.50000  1.0000
  Se  Se4       1.0  0.85087  0.54231  0.58443  1.0000
  Se  Se5       1.0  0.65125  0.94920  0.82167  1.0000
  Se  Se6       1.0  0.47728  0.73117  0.11185  1.0000
  Se  Se7       1.0  0.45769  0.14913  0.41557  1.0000
  Se  Se8       1.0  0.86888  0.13112  0.50000  1.0000
  Se  Se9       1.0  0.26883  0.52272  0.88815  1.0000
  Se  Se10      1.0  0.94920  0.65125  0.82167  1.0000
  Se  Se11      1.0  0.14913  0.45769  0.41557  1.0000
  Se  Se12      1.0  0.92188  0.92188  0.16535  1.0000
  Se  Se13      1.0  0.00000  0.50000  0.00000  1.0000
  Se  Se14      1.0  0.60834  0.60834  0.39351  1.0000
  Se  Se15      1.0  0.54231  0.85087  0.58443  1.0000
  Se  Se16      1.0  0.05080  0.34875  0.17833  1.0000
  Se  Se17      1.0  0.52272  0.26883  0.88815  1.0000
  Se  Se18      1.0  0.07812  0.07812  0.83465  1.0000
  Se  Se19      1.0  0.50000  0.00000  0.00000  1.0000
  Se  Se20      1.0  0.39166  0.39166  0.60649  1.0000
