data_image0
_chemical_formula_structural       TeSe4
_chemical_formula_sum              "Te1 Se4"
_cell_length_a       5.88893
_cell_length_b       5.88893
_cell_length_c       5.88893
_cell_angle_alpha    95.9925
_cell_angle_beta     95.9925
_cell_angle_gamma    142.298

_space_group_name_H-M_alt    "P 1"
_space_group_IT_number       1

loop_
  _space_group_symop_operation_xyz
  'x, y, z'

loop_
  _atom_site_type_symbol
  _atom_site_label
  _atom_site_symmetry_multiplicity
  _atom_site_fract_x
  _atom_site_fract_y
  _atom_site_fract_z
  _atom_site_occupancy
  Te  Te1       1.0  0.00000  0.00000  0.00000  1.0000
  Se  Se1       1.0  0.50031  0.79352  0.29384  1.0000
  Se  Se2       1.0  0.49969  0.20648  0.70616  1.0000
  Se  Se3       1.0  0.20648  0.50031  0.70679  1.0000
  Se  Se4       1.0  0.79352  0.49969  0.29321  1.0000
