data_image0
_chemical_formula_structural       Te9Tl5
_chemical_formula_sum              "Te9 Tl5"
_cell_length_a       9.1876
_cell_length_b       9.1876
_cell_length_c       10.0734
_cell_angle_alpha    54.381
_cell_angle_beta     54.381
_cell_angle_gamma    75.2871

_space_group_name_H-M_alt    "P 1"
_space_group_IT_number       1

loop_
  _space_group_symop_operation_xyz
  'x, y, z'

loop_
  _atom_site_type_symbol
  _atom_site_label
  _atom_site_symmetry_multiplicity
  _atom_site_fract_x
  _atom_site_fract_y
  _atom_site_fract_z
  _atom_site_occupancy
  Te  Te1       1.0  0.46969  0.11735  0.30881  1.0000
  Te  Te2       1.0  0.88265  0.53031  0.69119  1.0000
  Te  Te3       1.0  0.29819  0.95467  0.07909  1.0000
  Te  Te4       1.0  0.96304  0.61712  0.30022  1.0000
  Te  Te5       1.0  0.38288  0.03696  0.69978  1.0000
  Te  Te6       1.0  0.67906  0.32094  0.50000  1.0000
  Te  Te7       1.0  0.04533  0.70181  0.92091  1.0000
  Te  Te8       1.0  0.76799  0.42510  0.10218  1.0000
  Te  Te9       1.0  0.57490  0.23201  0.89782  1.0000
  Tl  Tl1       1.0  0.03603  0.17082  0.60813  1.0000
  Tl  Tl2       1.0  0.42394  0.57606  0.00000  1.0000
  Tl  Tl3       1.0  0.82918  0.96397  0.39187  1.0000
  Tl  Tl4       1.0  0.21501  0.38588  0.79049  1.0000
  Tl  Tl5       1.0  0.61412  0.78499  0.20951  1.0000
