data_image0
_chemical_formula_structural       Te10Tl6
_chemical_formula_sum              "Te10 Tl6"
_cell_length_a       10.6578
_cell_length_b       10.6578
_cell_length_c       10.6578
_cell_angle_alpha    95.0793
_cell_angle_beta     95.0793
_cell_angle_gamma    145.379

_space_group_name_H-M_alt    "P 1"
_space_group_IT_number       1

loop_
  _space_group_symop_operation_xyz
  'x, y, z'

loop_
  _atom_site_type_symbol
  _atom_site_label
  _atom_site_symmetry_multiplicity
  _atom_site_fract_x
  _atom_site_fract_y
  _atom_site_fract_z
  _atom_site_occupancy
  Te  Te1       1.0  0.64348  0.27626  0.91973  1.0000
  Te  Te2       1.0  0.35652  0.72374  0.08027  1.0000
  Te  Te3       1.0  0.72374  0.64348  0.36722  1.0000
  Te  Te4       1.0  0.27626  0.35652  0.63278  1.0000
  Te  Te5       1.0  0.85652  0.77626  0.63278  1.0000
  Te  Te6       1.0  0.22374  0.85652  0.08027  1.0000
  Te  Te7       1.0  0.25000  0.75000  0.50000  1.0000
  Te  Te8       1.0  0.75000  0.25000  0.50000  1.0000
  Te  Te9       1.0  0.14348  0.22374  0.36722  1.0000
  Te  Te10      1.0  0.77626  0.14348  0.91973  1.0000
  Tl  Tl1       1.0  0.86274  0.36274  0.22548  1.0000
  Tl  Tl2       1.0  0.63726  0.86274  0.50000  1.0000
  Tl  Tl3       1.0  0.36274  0.13726  0.50000  1.0000
  Tl  Tl4       1.0  0.13726  0.63726  0.77452  1.0000
  Tl  Tl5       1.0  0.75000  0.75000  0.00000  1.0000
  Tl  Tl6       1.0  0.25000  0.25000  0.00000  1.0000
