data_image0
_chemical_formula_structural       Te2Tl6
_chemical_formula_sum              "Te2 Tl6"
_cell_length_a       5.80643
_cell_length_b       6.48326
_cell_length_c       6.99767
_cell_angle_alpha    90
_cell_angle_beta     90
_cell_angle_gamma    90

_space_group_name_H-M_alt    "P 1"
_space_group_IT_number       1

loop_
  _space_group_symop_operation_xyz
  'x, y, z'

loop_
  _atom_site_type_symbol
  _atom_site_label
  _atom_site_symmetry_multiplicity
  _atom_site_fract_x
  _atom_site_fract_y
  _atom_site_fract_z
  _atom_site_occupancy
  Te  Te1       1.0  0.50000  0.63406  0.50000  1.0000
  Te  Te2       1.0  0.00000  0.36594  0.00000  1.0000
  Tl  Tl1       1.0  0.50000  0.16744  0.75237  1.0000
  Tl  Tl2       1.0  0.50000  0.16744  0.24763  1.0000
  Tl  Tl3       1.0  0.00000  0.83256  0.74763  1.0000
  Tl  Tl4       1.0  0.00000  0.83256  0.25237  1.0000
  Tl  Tl5       1.0  0.00000  0.34868  0.50000  1.0000
  Tl  Tl6       1.0  0.50000  0.65132  0.00000  1.0000
