data_image0
_chemical_formula_structural       Te6Tl20
_chemical_formula_sum              "Te6 Tl20"
_cell_length_a       12.9287
_cell_length_b       12.9287
_cell_length_c       5.87395
_cell_angle_alpha    90
_cell_angle_beta     90
_cell_angle_gamma    120

_space_group_name_H-M_alt    "P 1"
_space_group_IT_number       1

loop_
  _space_group_symop_operation_xyz
  'x, y, z'

loop_
  _atom_site_type_symbol
  _atom_site_label
  _atom_site_symmetry_multiplicity
  _atom_site_fract_x
  _atom_site_fract_y
  _atom_site_fract_z
  _atom_site_occupancy
  Te  Te1       1.0  0.64574  0.74968  0.25000  1.0000
  Te  Te2       1.0  0.25032  0.89605  0.25000  1.0000
  Te  Te3       1.0  0.10395  0.35426  0.25000  1.0000
  Te  Te4       1.0  0.35426  0.25032  0.75000  1.0000
  Te  Te5       1.0  0.74968  0.10395  0.75000  1.0000
  Te  Te6       1.0  0.89605  0.64574  0.75000  1.0000
  Tl  Tl1       1.0  0.87484  0.05851  0.25000  1.0000
  Tl  Tl2       1.0  0.94149  0.81632  0.25000  1.0000
  Tl  Tl3       1.0  0.18368  0.12516  0.25000  1.0000
  Tl  Tl4       1.0  0.12516  0.94149  0.75000  1.0000
  Tl  Tl5       1.0  0.05851  0.18368  0.75000  1.0000
  Tl  Tl6       1.0  0.81632  0.87484  0.75000  1.0000
  Tl  Tl7       1.0  0.56766  0.97769  0.25000  1.0000
  Tl  Tl8       1.0  0.02231  0.58997  0.25000  1.0000
  Tl  Tl9       1.0  0.41003  0.43234  0.25000  1.0000
  Tl  Tl10      1.0  0.43234  0.02231  0.75000  1.0000
  Tl  Tl11      1.0  0.97769  0.41003  0.75000  1.0000
  Tl  Tl12      1.0  0.58997  0.56766  0.75000  1.0000
  Tl  Tl13      1.0  0.79468  0.27839  0.25000  1.0000
  Tl  Tl14      1.0  0.72161  0.51629  0.25000  1.0000
  Tl  Tl15      1.0  0.48371  0.20532  0.25000  1.0000
  Tl  Tl16      1.0  0.20532  0.72161  0.75000  1.0000
  Tl  Tl17      1.0  0.27839  0.48371  0.75000  1.0000
  Tl  Tl18      1.0  0.51629  0.79468  0.75000  1.0000
  Tl  Tl19      1.0  0.66667  0.33333  0.75000  1.0000
  Tl  Tl20      1.0  0.33333  0.66667  0.25000  1.0000
