data_image0
_chemical_formula_structural       Te4Tl12
_chemical_formula_sum              "Te4 Tl12"
_cell_length_a       11.3621
_cell_length_b       11.3621
_cell_length_c       7.06236
_cell_angle_alpha    90
_cell_angle_beta     90
_cell_angle_gamma    144.612

_space_group_name_H-M_alt    "P 1"
_space_group_IT_number       1

loop_
  _space_group_symop_operation_xyz
  'x, y, z'

loop_
  _atom_site_type_symbol
  _atom_site_label
  _atom_site_symmetry_multiplicity
  _atom_site_fract_x
  _atom_site_fract_y
  _atom_site_fract_z
  _atom_site_occupancy
  Te  Te1       1.0  0.62369  0.37631  0.00000  1.0000
  Te  Te2       1.0  0.37631  0.62369  0.00000  1.0000
  Te  Te3       1.0  0.12369  0.87631  0.50000  1.0000
  Te  Te4       1.0  0.87631  0.12369  0.50000  1.0000
  Tl  Tl1       1.0  0.71015  0.71015  0.21596  1.0000
  Tl  Tl2       1.0  0.21015  0.21015  0.28404  1.0000
  Tl  Tl3       1.0  0.78985  0.78985  0.71596  1.0000
  Tl  Tl4       1.0  0.37431  0.62569  0.50000  1.0000
  Tl  Tl5       1.0  0.99696  0.49696  0.75000  1.0000
  Tl  Tl6       1.0  0.87431  0.12569  0.00000  1.0000
  Tl  Tl7       1.0  0.00304  0.50304  0.25000  1.0000
  Tl  Tl8       1.0  0.28985  0.28985  0.78404  1.0000
  Tl  Tl9       1.0  0.62569  0.37431  0.50000  1.0000
  Tl  Tl10      1.0  0.12569  0.87431  0.00000  1.0000
  Tl  Tl11      1.0  0.50304  0.00304  0.25000  1.0000
  Tl  Tl12      1.0  0.49696  0.99696  0.75000  1.0000
