data_image0
_chemical_formula_structural       Ti2Cl4
_chemical_formula_sum              "Ti2 Cl4"
_cell_length_a       3.5803
_cell_length_b       5.8996
_cell_length_c       6.1761
_cell_angle_alpha    90
_cell_angle_beta     90
_cell_angle_gamma    90

_space_group_name_H-M_alt    "P 1"
_space_group_IT_number       1

loop_
  _space_group_symop_operation_xyz
  'x, y, z'

loop_
  _atom_site_type_symbol
  _atom_site_label
  _atom_site_symmetry_multiplicity
  _atom_site_fract_x
  _atom_site_fract_y
  _atom_site_fract_z
  _atom_site_occupancy
  Ti  Ti1       1.0  0.50000  0.50000  0.50000  1.0000
  Ti  Ti2       1.0  0.00000  0.00000  0.00000  1.0000
  Cl  Cl1       1.0  0.50000  0.23631  0.82500  1.0000
  Cl  Cl2       1.0  0.50000  0.76369  0.17500  1.0000
  Cl  Cl3       1.0  0.00000  0.26369  0.32500  1.0000
  Cl  Cl4       1.0  0.00000  0.73631  0.67500  1.0000
