data_image0
_chemical_formula_structural       Tl10Te6
_chemical_formula_sum              "Tl10 Te6"
_cell_length_a       9.17431
_cell_length_b       9.17431
_cell_length_c       9.17431
_cell_angle_alpha    120.644
_cell_angle_beta     120.644
_cell_angle_gamma    88.8874

_space_group_name_H-M_alt    "P 1"
_space_group_IT_number       1

loop_
  _space_group_symop_operation_xyz
  'x, y, z'

loop_
  _atom_site_type_symbol
  _atom_site_label
  _atom_site_symmetry_multiplicity
  _atom_site_fract_x
  _atom_site_fract_y
  _atom_site_fract_z
  _atom_site_occupancy
  Tl  Tl1       1.0  0.49248  0.69511  0.50000  1.0000
  Tl  Tl2       1.0  0.50752  0.30489  0.50000  1.0000
  Tl  Tl3       1.0  0.50000  0.50000  0.00000  1.0000
  Tl  Tl4       1.0  0.00000  0.00000  0.00000  1.0000
  Tl  Tl5       1.0  0.19511  0.99248  0.50000  1.0000
  Tl  Tl6       1.0  0.99248  0.49248  0.79737  1.0000
  Tl  Tl7       1.0  0.69511  0.19511  0.20263  1.0000
  Tl  Tl8       1.0  0.30489  0.80489  0.79737  1.0000
  Tl  Tl9       1.0  0.00752  0.50752  0.20263  1.0000
  Tl  Tl10      1.0  0.80489  0.00752  0.50000  1.0000
  Te  Te1       1.0  0.84265  0.65735  0.50000  1.0000
  Te  Te2       1.0  0.65735  0.15735  0.81470  1.0000
  Te  Te3       1.0  0.34265  0.84265  0.18530  1.0000
  Te  Te4       1.0  0.15735  0.34265  0.50000  1.0000
  Te  Te5       1.0  0.25000  0.25000  0.00000  1.0000
  Te  Te6       1.0  0.75000  0.75000  0.00000  1.0000
