data_image0
_chemical_formula_structural       Tl12Te
_chemical_formula_sum              "Tl12 Te1"
_cell_length_a       8.20416
_cell_length_b       8.20416
_cell_length_c       8.20416
_cell_angle_alpha    109.471
_cell_angle_beta     109.471
_cell_angle_gamma    109.471

_space_group_name_H-M_alt    "P 1"
_space_group_IT_number       1

loop_
  _space_group_symop_operation_xyz
  'x, y, z'

loop_
  _atom_site_type_symbol
  _atom_site_label
  _atom_site_symmetry_multiplicity
  _atom_site_fract_x
  _atom_site_fract_y
  _atom_site_fract_z
  _atom_site_occupancy
  Tl  Tl1       1.0  0.68594  0.86964  0.18371  1.0000
  Tl  Tl2       1.0  0.81629  0.31406  0.13036  1.0000
  Tl  Tl3       1.0  0.50223  0.81629  0.68594  1.0000
  Tl  Tl4       1.0  0.81629  0.68594  0.50223  1.0000
  Tl  Tl5       1.0  0.49777  0.18371  0.31406  1.0000
  Tl  Tl6       1.0  0.18371  0.68594  0.86964  1.0000
  Tl  Tl7       1.0  0.86964  0.18371  0.68594  1.0000
  Tl  Tl8       1.0  0.13036  0.81629  0.31406  1.0000
  Tl  Tl9       1.0  0.18371  0.31406  0.49777  1.0000
  Tl  Tl10      1.0  0.68594  0.50223  0.81629  1.0000
  Tl  Tl11      1.0  0.31406  0.49777  0.18371  1.0000
  Tl  Tl12      1.0  0.31406  0.13036  0.81629  1.0000
  Te  Te1       1.0  0.00000  0.00000  0.00000  1.0000
