data_image0
_chemical_formula_structural       F10Ti6
_chemical_formula_sum              "F10 Ti6"
_cell_length_a       6.52068
_cell_length_b       6.52068
_cell_length_c       6.52068
_cell_angle_alpha    121.75
_cell_angle_beta     121.75
_cell_angle_gamma    86.9948

_space_group_name_H-M_alt    "P 1"
_space_group_IT_number       1

loop_
  _space_group_symop_operation_xyz
  'x, y, z'

loop_
  _atom_site_type_symbol
  _atom_site_label
  _atom_site_symmetry_multiplicity
  _atom_site_fract_x
  _atom_site_fract_y
  _atom_site_fract_z
  _atom_site_occupancy
  F   F1        1.0  0.51745  0.71979  0.50000  1.0000
  F   F2        1.0  0.48255  0.28021  0.50000  1.0000
  F   F3        1.0  0.50000  0.50000  0.00000  1.0000
  F   F4        1.0  0.00000  0.00000  0.00000  1.0000
  F   F5        1.0  0.21979  0.01745  0.50000  1.0000
  F   F6        1.0  0.01745  0.51745  0.79766  1.0000
  F   F7        1.0  0.71979  0.21979  0.20234  1.0000
  F   F8        1.0  0.28021  0.78021  0.79766  1.0000
  F   F9        1.0  0.98255  0.48255  0.20234  1.0000
  F   F10       1.0  0.78021  0.98255  0.50000  1.0000
  Ti  Ti1       1.0  0.85939  0.64061  0.50000  1.0000
  Ti  Ti2       1.0  0.64061  0.14061  0.78122  1.0000
  Ti  Ti3       1.0  0.35939  0.85939  0.21878  1.0000
  Ti  Ti4       1.0  0.14061  0.35939  0.50000  1.0000
  Ti  Ti5       1.0  0.25000  0.25000  0.00000  1.0000
  Ti  Ti6       1.0  0.75000  0.75000  1.00000  1.0000
