data_image0
_chemical_formula_structural       Br8Ti12
_chemical_formula_sum              "Br8 Ti12"
_cell_length_a       5.79004
_cell_length_b       5.79004
_cell_length_c       13.6634
_cell_angle_alpha    90
_cell_angle_beta     90
_cell_angle_gamma    120

_space_group_name_H-M_alt    "P 1"
_space_group_IT_number       1

loop_
  _space_group_symop_operation_xyz
  'x, y, z'

loop_
  _atom_site_type_symbol
  _atom_site_label
  _atom_site_symmetry_multiplicity
  _atom_site_fract_x
  _atom_site_fract_y
  _atom_site_fract_z
  _atom_site_occupancy
  Br  Br1       1.0  0.00000  0.00000  0.25000  1.0000
  Br  Br2       1.0  0.00000  0.00000  0.75000  1.0000
  Br  Br3       1.0  0.33333  0.66667  0.25000  1.0000
  Br  Br4       1.0  0.66667  0.33333  0.75000  1.0000
  Br  Br5       1.0  0.33333  0.66667  0.60234  1.0000
  Br  Br6       1.0  0.66667  0.33333  0.10234  1.0000
  Br  Br7       1.0  0.66667  0.33333  0.39766  1.0000
  Br  Br8       1.0  0.33333  0.66667  0.89766  1.0000
  Ti  Ti1       1.0  0.16831  0.33662  0.42313  1.0000
  Ti  Ti2       1.0  0.16831  0.83169  0.42313  1.0000
  Ti  Ti3       1.0  0.66338  0.83169  0.42313  1.0000
  Ti  Ti4       1.0  0.83169  0.16831  0.92313  1.0000
  Ti  Ti5       1.0  0.33662  0.16831  0.92313  1.0000
  Ti  Ti6       1.0  0.83169  0.66338  0.92313  1.0000
  Ti  Ti7       1.0  0.83169  0.66338  0.57687  1.0000
  Ti  Ti8       1.0  0.83169  0.16831  0.57687  1.0000
  Ti  Ti9       1.0  0.33662  0.16831  0.57687  1.0000
  Ti  Ti10      1.0  0.16831  0.83169  0.07687  1.0000
  Ti  Ti11      1.0  0.66338  0.83169  0.07687  1.0000
  Ti  Ti12      1.0  0.16831  0.33662  0.07687  1.0000
