data_image0
_chemical_formula_structural       Ti4Br8
_chemical_formula_sum              "Ti4 Br8"
_cell_length_a       3.76152
_cell_length_b       6.43381
_cell_length_c       14.1331
_cell_angle_alpha    90
_cell_angle_beta     90
_cell_angle_gamma    90

_space_group_name_H-M_alt    "P 1"
_space_group_IT_number       1

loop_
  _space_group_symop_operation_xyz
  'x, y, z'

loop_
  _atom_site_type_symbol
  _atom_site_label
  _atom_site_symmetry_multiplicity
  _atom_site_fract_x
  _atom_site_fract_y
  _atom_site_fract_z
  _atom_site_occupancy
  Ti  Ti1       1.0  0.50000  0.00000  0.50000  1.0000
  Ti  Ti2       1.0  0.00000  0.50000  0.50000  1.0000
  Ti  Ti3       1.0  0.50000  0.50000  0.00000  1.0000
  Ti  Ti4       1.0  0.00000  0.00000  0.00000  1.0000
  Br  Br1       1.0  0.49999  0.16510  0.11320  1.0000
  Br  Br2       1.0  0.99999  0.33490  0.88680  1.0000
  Br  Br3       1.0  0.50001  0.66510  0.38680  1.0000
  Br  Br4       1.0  0.00001  0.83490  0.61320  1.0000
  Br  Br5       1.0  0.99999  0.16510  0.38680  1.0000
  Br  Br6       1.0  0.49999  0.33490  0.61320  1.0000
  Br  Br7       1.0  0.00001  0.66510  0.11320  1.0000
  Br  Br8       1.0  0.50001  0.83490  0.88680  1.0000
