data_image0
_chemical_formula_structural       Cl4Ti2
_chemical_formula_sum              "Cl4 Ti2"
_cell_length_a       5.28246
_cell_length_b       5.28246
_cell_length_c       5.28246
_cell_angle_alpha    108.661
_cell_angle_beta     108.661
_cell_angle_gamma    111.104

_space_group_name_H-M_alt    "P 1"
_space_group_IT_number       1

loop_
  _space_group_symop_operation_xyz
  'x, y, z'

loop_
  _atom_site_type_symbol
  _atom_site_label
  _atom_site_symmetry_multiplicity
  _atom_site_fract_x
  _atom_site_fract_y
  _atom_site_fract_z
  _atom_site_occupancy
  Cl  Cl1       1.0  0.81343  0.31343  0.12687  1.0000
  Cl  Cl2       1.0  0.31343  0.18657  0.50000  1.0000
  Cl  Cl3       1.0  0.18657  0.68657  0.87313  1.0000
  Cl  Cl4       1.0  0.68657  0.81343  0.50000  1.0000
  Ti  Ti1       1.0  0.25000  0.25000  0.00000  1.0000
  Ti  Ti2       1.0  0.75000  0.75000  0.00000  1.0000
