data_image0
_chemical_formula_structural       Ti4F12
_chemical_formula_sum              "Ti4 F12"
_cell_length_a       6.92759
_cell_length_b       6.92759
_cell_length_c       4.85806
_cell_angle_alpha    90
_cell_angle_beta     90
_cell_angle_gamma    138.615

_space_group_name_H-M_alt    "P 1"
_space_group_IT_number       1

loop_
  _space_group_symop_operation_xyz
  'x, y, z'

loop_
  _atom_site_type_symbol
  _atom_site_label
  _atom_site_symmetry_multiplicity
  _atom_site_fract_x
  _atom_site_fract_y
  _atom_site_fract_z
  _atom_site_occupancy
  Ti  Ti1       1.0  0.63112  0.36888  0.00000  1.0000
  Ti  Ti2       1.0  0.36888  0.63112  0.00000  1.0000
  Ti  Ti3       1.0  0.13112  0.86888  0.50000  1.0000
  Ti  Ti4       1.0  0.86888  0.13112  0.50000  1.0000
  F   F1        1.0  0.65775  0.65775  0.15590  1.0000
  F   F2        1.0  0.15775  0.15775  0.34410  1.0000
  F   F3        1.0  0.84225  0.84225  0.65590  1.0000
  F   F4        1.0  0.37877  0.62123  0.50000  1.0000
  F   F5        1.0  0.99718  0.49718  0.75000  1.0000
  F   F6        1.0  0.87877  0.12123  0.00000  1.0000
  F   F7        1.0  0.00282  0.50282  0.25000  1.0000
  F   F8        1.0  0.34225  0.34225  0.84410  1.0000
  F   F9        1.0  0.62123  0.37877  0.50000  1.0000
  F   F10       1.0  0.12123  0.87877  0.00000  1.0000
  F   F11       1.0  0.50282  0.00282  0.25000  1.0000
  F   F12       1.0  0.49718  0.99718  0.75000  1.0000
