data_image0
_chemical_formula_structural       F14Ti7
_chemical_formula_sum              "F14 Ti7"
_cell_length_a       3.94418
_cell_length_b       2.97469
_cell_length_c       25.2329
_cell_angle_alpha    85.2158
_cell_angle_beta     93.6393
_cell_angle_gamma    112.346

_space_group_name_H-M_alt    "P 1"
_space_group_IT_number       1

loop_
  _space_group_symop_operation_xyz
  'x, y, z'

loop_
  _atom_site_type_symbol
  _atom_site_label
  _atom_site_symmetry_multiplicity
  _atom_site_fract_x
  _atom_site_fract_y
  _atom_site_fract_z
  _atom_site_occupancy
  F   F1        1.0  0.79656  0.50268  0.84566  1.0000
  F   F2        1.0  0.26924  0.18886  0.91107  1.0000
  F   F3        1.0  0.40410  0.86489  0.77124  1.0000
  F   F4        1.0  0.21180  0.37199  0.63030  1.0000
  F   F5        1.0  0.64794  0.12254  0.58249  1.0000
  F   F6        1.0  0.12617  0.13214  0.50098  1.0000
  F   F7        1.0  0.64441  0.45800  0.42181  1.0000
  F   F8        1.0  0.55756  0.52409  0.28681  1.0000
  F   F9        1.0  0.04269  0.22045  0.34740  1.0000
  F   F10       1.0  0.10319  0.96535  0.08554  1.0000
  F   F11       1.0  0.01156  0.29677  0.22614  1.0000
  F   F12       1.0  0.58506  0.65377  0.15202  1.0000
  F   F13       1.0  0.51291  0.72113  0.02787  1.0000
  F   F14       1.0  0.85628  0.43441  0.96873  1.0000
  Ti  Ti1       1.0  0.18474  0.07797  0.99828  1.0000
  Ti  Ti2       1.0  0.37991  0.78612  0.85457  1.0000
  Ti  Ti3       1.0  0.35803  0.38761  0.70968  1.0000
  Ti  Ti4       1.0  0.80694  0.66827  0.63057  1.0000
  Ti  Ti5       1.0  0.08220  0.17093  0.43057  1.0000
  Ti  Ti6       1.0  0.12603  0.80815  0.28639  1.0000
  Ti  Ti7       1.0  0.00013  0.37077  0.14218  1.0000
