data_image0
_chemical_formula_structural       Ti4Cl8
_chemical_formula_sum              "Ti4 Cl8"
_cell_length_a       6.2487
_cell_length_b       6.23411
_cell_length_c       6.24278
_cell_angle_alpha    90
_cell_angle_beta     90
_cell_angle_gamma    90

_space_group_name_H-M_alt    "P 1"
_space_group_IT_number       1

loop_
  _space_group_symop_operation_xyz
  'x, y, z'

loop_
  _atom_site_type_symbol
  _atom_site_label
  _atom_site_symmetry_multiplicity
  _atom_site_fract_x
  _atom_site_fract_y
  _atom_site_fract_z
  _atom_site_occupancy
  Ti  Ti1       1.0  0.50000  0.00000  0.50000  1.0000
  Ti  Ti2       1.0  0.00000  0.50000  0.50000  1.0000
  Ti  Ti3       1.0  0.50000  0.50000  0.00000  1.0000
  Ti  Ti4       1.0  0.00000  0.00000  0.00000  1.0000
  Cl  Cl1       1.0  0.65276  0.15215  0.15350  1.0000
  Cl  Cl2       1.0  0.15276  0.34785  0.84650  1.0000
  Cl  Cl3       1.0  0.34724  0.65215  0.34650  1.0000
  Cl  Cl4       1.0  0.84724  0.84785  0.65350  1.0000
  Cl  Cl5       1.0  0.15276  0.15215  0.34650  1.0000
  Cl  Cl6       1.0  0.65276  0.34785  0.65350  1.0000
  Cl  Cl7       1.0  0.84724  0.65215  0.15350  1.0000
  Cl  Cl8       1.0  0.34724  0.84785  0.84650  1.0000
