data_image0
_chemical_formula_structural       TeTl2
_chemical_formula_sum              "Te1 Tl2"
_cell_length_a       4.84366
_cell_length_b       4.84366
_cell_length_c       5.77894
_cell_angle_alpha    89.0053
_cell_angle_beta     89.0053
_cell_angle_gamma    59.4049

_space_group_name_H-M_alt    "P 1"
_space_group_IT_number       1

loop_
  _space_group_symop_operation_xyz
  'x, y, z'

loop_
  _atom_site_type_symbol
  _atom_site_label
  _atom_site_symmetry_multiplicity
  _atom_site_fract_x
  _atom_site_fract_y
  _atom_site_fract_z
  _atom_site_occupancy
  Te  Te1       1.0  0.66551  0.33449  0.50000  1.0000
  Tl  Tl1       1.0  0.33033  0.99584  0.79289  1.0000
  Tl  Tl2       1.0  0.00416  0.66967  0.20711  1.0000
