data_image0
_chemical_formula_structural       F9Ti13
_chemical_formula_sum              "F9 Ti13"
_cell_length_a       7.87154
_cell_length_b       7.87154
_cell_length_c       6.08531
_cell_angle_alpha    90
_cell_angle_beta     90
_cell_angle_gamma    120

_space_group_name_H-M_alt    "P 1"
_space_group_IT_number       1

loop_
  _space_group_symop_operation_xyz
  'x, y, z'

loop_
  _atom_site_type_symbol
  _atom_site_label
  _atom_site_symmetry_multiplicity
  _atom_site_fract_x
  _atom_site_fract_y
  _atom_site_fract_z
  _atom_site_occupancy
  F   F1        1.0  0.00000  0.00000  0.50000  1.0000
  F   F2        1.0  0.33333  0.66667  0.06036  1.0000
  F   F3        1.0  0.66667  0.33333  0.93964  1.0000
  F   F4        1.0  0.21000  0.79000  0.46734  1.0000
  F   F5        1.0  0.21000  0.41999  0.46734  1.0000
  F   F6        1.0  0.58001  0.79000  0.46734  1.0000
  F   F7        1.0  0.41999  0.21000  0.53266  1.0000
  F   F8        1.0  0.79000  0.58001  0.53266  1.0000
  F   F9        1.0  0.79000  0.21000  0.53266  1.0000
  Ti  Ti1       1.0  0.00000  0.00000  0.00000  1.0000
  Ti  Ti2       1.0  0.50000  0.00000  0.00000  1.0000
  Ti  Ti3       1.0  0.00000  0.50000  0.00000  1.0000
  Ti  Ti4       1.0  0.50000  0.50000  0.00000  1.0000
  Ti  Ti5       1.0  0.50000  0.00000  0.50000  1.0000
  Ti  Ti6       1.0  0.00000  0.50000  0.50000  1.0000
  Ti  Ti7       1.0  0.50000  0.50000  0.50000  1.0000
  Ti  Ti8       1.0  0.14650  0.85350  0.78559  1.0000
  Ti  Ti9       1.0  0.14650  0.29300  0.78559  1.0000
  Ti  Ti10      1.0  0.70700  0.85350  0.78559  1.0000
  Ti  Ti11      1.0  0.29300  0.14650  0.21441  1.0000
  Ti  Ti12      1.0  0.85350  0.70700  0.21441  1.0000
  Ti  Ti13      1.0  0.85350  0.14650  0.21441  1.0000
