data_image0
_chemical_formula_structural       Ti2F4
_chemical_formula_sum              "Ti2 F4"
_cell_length_a       2.93884
_cell_length_b       5.05099
_cell_length_c       5.31308
_cell_angle_alpha    90
_cell_angle_beta     90
_cell_angle_gamma    90

_space_group_name_H-M_alt    "P 1"
_space_group_IT_number       1

loop_
  _space_group_symop_operation_xyz
  'x, y, z'

loop_
  _atom_site_type_symbol
  _atom_site_label
  _atom_site_symmetry_multiplicity
  _atom_site_fract_x
  _atom_site_fract_y
  _atom_site_fract_z
  _atom_site_occupancy
  Ti  Ti1       1.0  0.50000  0.50000  0.50000  1.0000
  Ti  Ti2       1.0  0.00000  0.00000  0.00000  1.0000
  F   F1        1.0  0.50000  0.22886  0.80641  1.0000
  F   F2        1.0  0.50000  0.77114  0.19359  1.0000
  F   F3        1.0  0.00000  0.27114  0.30641  1.0000
  F   F4        1.0  0.00000  0.72886  0.69359  1.0000
