data_image0
_chemical_formula_structural       Te2Tl2
_chemical_formula_sum              "Te2 Tl2"
_cell_length_a       6.74277
_cell_length_b       6.74277
_cell_length_c       5.55762
_cell_angle_alpha    90
_cell_angle_beta     90
_cell_angle_gamma    148.896

_space_group_name_H-M_alt    "P 1"
_space_group_IT_number       1

loop_
  _space_group_symop_operation_xyz
  'x, y, z'

loop_
  _atom_site_type_symbol
  _atom_site_label
  _atom_site_symmetry_multiplicity
  _atom_site_fract_x
  _atom_site_fract_y
  _atom_site_fract_z
  _atom_site_occupancy
  Te  Te1       1.0  0.13506  0.86494  0.75000  1.0000
  Te  Te2       1.0  0.86494  0.13506  0.25000  1.0000
  Tl  Tl1       1.0  0.39472  0.60528  0.75000  1.0000
  Tl  Tl2       1.0  0.60528  0.39472  0.25000  1.0000
