data_image0
_chemical_formula_structural       Ti3Br8
_chemical_formula_sum              "Ti3 Br8"
_cell_length_a       6.7168
_cell_length_b       6.7168
_cell_length_c       6.7168
_cell_angle_alpha    94.1667
_cell_angle_beta     94.1667
_cell_angle_gamma    94.1667

_space_group_name_H-M_alt    "P 1"
_space_group_IT_number       1

loop_
  _space_group_symop_operation_xyz
  'x, y, z'

loop_
  _atom_site_type_symbol
  _atom_site_label
  _atom_site_symmetry_multiplicity
  _atom_site_fract_x
  _atom_site_fract_y
  _atom_site_fract_z
  _atom_site_occupancy
  Ti  Ti1       1.0  0.50000  1.00000  0.50000  1.0000
  Ti  Ti2       1.0  1.00000  0.50000  0.50000  1.0000
  Ti  Ti3       1.0  0.50000  0.50000  0.00000  1.0000
  Br  Br1       1.0  0.62030  0.85249  0.17421  1.0000
  Br  Br2       1.0  0.85249  0.17421  0.62030  1.0000
  Br  Br3       1.0  0.17421  0.62030  0.85249  1.0000
  Br  Br4       1.0  0.66870  0.66870  0.66870  1.0000
  Br  Br5       1.0  0.33130  0.33130  0.33130  1.0000
  Br  Br6       1.0  0.82579  0.37970  0.14751  1.0000
  Br  Br7       1.0  0.14751  0.82579  0.37970  1.0000
  Br  Br8       1.0  0.37970  0.14751  0.82579  1.0000
