data_image0
_chemical_formula_structural       Te3Tl4
_chemical_formula_sum              "Te3 Tl4"
_cell_length_a       7.93481
_cell_length_b       7.93481
_cell_length_c       9.12299
_cell_angle_alpha    58.034
_cell_angle_beta     58.034
_cell_angle_gamma    39.1344

_space_group_name_H-M_alt    "P 1"
_space_group_IT_number       1

loop_
  _space_group_symop_operation_xyz
  'x, y, z'

loop_
  _atom_site_type_symbol
  _atom_site_label
  _atom_site_symmetry_multiplicity
  _atom_site_fract_x
  _atom_site_fract_y
  _atom_site_fract_z
  _atom_site_occupancy
  Te  Te1       1.0  0.00000  0.00000  0.00000  1.0000
  Te  Te2       1.0  0.24620  0.24620  0.73120  1.0000
  Te  Te3       1.0  0.75380  0.75380  0.26880  1.0000
  Tl  Tl1       1.0  0.12083  0.12083  0.53161  1.0000
  Tl  Tl2       1.0  0.87917  0.87917  0.46839  1.0000
  Tl  Tl3       1.0  0.63643  0.63643  0.02229  1.0000
  Tl  Tl4       1.0  0.36357  0.36357  0.97771  1.0000
