data_image0
_chemical_formula_structural       F4Ti2
_chemical_formula_sum              "F4 Ti2"
_cell_length_a       4.47581
_cell_length_b       4.47581
_cell_length_c       4.47581
_cell_angle_alpha    110.507
_cell_angle_beta     110.507
_cell_angle_gamma    107.419

_space_group_name_H-M_alt    "P 1"
_space_group_IT_number       1

loop_
  _space_group_symop_operation_xyz
  'x, y, z'

loop_
  _atom_site_type_symbol
  _atom_site_label
  _atom_site_symmetry_multiplicity
  _atom_site_fract_x
  _atom_site_fract_y
  _atom_site_fract_z
  _atom_site_occupancy
  F   F1        1.0  0.75260  0.25260  0.00521  1.0000
  F   F2        1.0  0.25260  0.24740  0.50000  1.0000
  F   F3        1.0  0.24740  0.74740  0.99479  1.0000
  F   F4        1.0  0.74740  0.75260  0.50000  1.0000
  Ti  Ti1       1.0  0.25000  0.25000  0.00000  1.0000
  Ti  Ti2       1.0  0.75000  0.75000  0.00000  1.0000
