data_image0
_chemical_formula_structural       TiF4
_chemical_formula_sum              "Ti1 F4"
_cell_length_a       4.86842
_cell_length_b       4.86842
_cell_length_c       4.86842
_cell_angle_alpha    94.2083
_cell_angle_beta     94.2083
_cell_angle_gamma    148.565

_space_group_name_H-M_alt    "P 1"
_space_group_IT_number       1

loop_
  _space_group_symop_operation_xyz
  'x, y, z'

loop_
  _atom_site_type_symbol
  _atom_site_label
  _atom_site_symmetry_multiplicity
  _atom_site_fract_x
  _atom_site_fract_y
  _atom_site_fract_z
  _atom_site_occupancy
  Ti  Ti1       1.0  0.00000  0.00000  0.00000  1.0000
  F   F1        1.0  0.55356  0.72893  0.28249  1.0000
  F   F2        1.0  0.44644  0.27107  0.71751  1.0000
  F   F3        1.0  0.27107  0.55356  0.82463  1.0000
  F   F4        1.0  0.72893  0.44644  0.17537  1.0000
