data_image0
_chemical_formula_structural       TiBr4
_chemical_formula_sum              "Ti1 Br4"
_cell_length_a       7.44224
_cell_length_b       7.44224
_cell_length_c       7.44224
_cell_angle_alpha    92.6271
_cell_angle_beta     92.6271
_cell_angle_gamma    155.275

_space_group_name_H-M_alt    "P 1"
_space_group_IT_number       1

loop_
  _space_group_symop_operation_xyz
  'x, y, z'

loop_
  _atom_site_type_symbol
  _atom_site_label
  _atom_site_symmetry_multiplicity
  _atom_site_fract_x
  _atom_site_fract_y
  _atom_site_fract_z
  _atom_site_occupancy
  Ti  Ti1       1.0  0.00000  0.00000  0.00000  1.0000
  Br  Br1       1.0  0.55222  0.70996  0.26218  1.0000
  Br  Br2       1.0  0.44778  0.29004  0.73782  1.0000
  Br  Br3       1.0  0.29004  0.55222  0.84227  1.0000
  Br  Br4       1.0  0.70996  0.44778  0.15773  1.0000
