data_image0
_chemical_formula_structural       Cl10Ti6
_chemical_formula_sum              "Cl10 Ti6"
_cell_length_a       7.82968
_cell_length_b       7.82968
_cell_length_c       7.82968
_cell_angle_alpha    125.601
_cell_angle_beta     125.601
_cell_angle_gamma    80.5444

_space_group_name_H-M_alt    "P 1"
_space_group_IT_number       1

loop_
  _space_group_symop_operation_xyz
  'x, y, z'

loop_
  _atom_site_type_symbol
  _atom_site_label
  _atom_site_symmetry_multiplicity
  _atom_site_fract_x
  _atom_site_fract_y
  _atom_site_fract_z
  _atom_site_occupancy
  Cl  Cl1       1.0  0.51775  0.69835  0.50000  1.0000
  Cl  Cl2       1.0  0.48225  0.30165  0.50000  1.0000
  Cl  Cl3       1.0  0.50000  0.50000  0.00000  1.0000
  Cl  Cl4       1.0  0.00000  0.00000  0.00000  1.0000
  Cl  Cl5       1.0  0.19835  0.01775  0.50000  1.0000
  Cl  Cl6       1.0  0.01775  0.51775  0.81940  1.0000
  Cl  Cl7       1.0  0.69835  0.19835  0.18060  1.0000
  Cl  Cl8       1.0  0.30165  0.80165  0.81940  1.0000
  Cl  Cl9       1.0  0.98225  0.48225  0.18060  1.0000
  Cl  Cl10      1.0  0.80165  0.98225  0.50000  1.0000
  Ti  Ti1       1.0  0.84301  0.65699  0.50000  1.0000
  Ti  Ti2       1.0  0.65699  0.15699  0.81397  1.0000
  Ti  Ti3       1.0  0.34301  0.84301  0.18603  1.0000
  Ti  Ti4       1.0  0.15699  0.34301  0.50000  1.0000
  Ti  Ti5       1.0  0.25000  0.25000  0.00000  1.0000
  Ti  Ti6       1.0  0.75000  0.75000  0.00000  1.0000
