data_image0
_chemical_formula_structural       Cl8Ti12
_chemical_formula_sum              "Cl8 Ti12"
_cell_length_a       5.47299
_cell_length_b       5.47299
_cell_length_c       13.9158
_cell_angle_alpha    90
_cell_angle_beta     90
_cell_angle_gamma    120

_space_group_name_H-M_alt    "P 1"
_space_group_IT_number       1

loop_
  _space_group_symop_operation_xyz
  'x, y, z'

loop_
  _atom_site_type_symbol
  _atom_site_label
  _atom_site_symmetry_multiplicity
  _atom_site_fract_x
  _atom_site_fract_y
  _atom_site_fract_z
  _atom_site_occupancy
  Cl  Cl1       1.0  0.00000  0.00000  0.25000  1.0000
  Cl  Cl2       1.0  0.00000  0.00000  0.75000  1.0000
  Cl  Cl3       1.0  0.33333  0.66667  0.25000  1.0000
  Cl  Cl4       1.0  0.66667  0.33333  0.75000  1.0000
  Cl  Cl5       1.0  0.33333  0.66667  0.64015  1.0000
  Cl  Cl6       1.0  0.66667  0.33333  0.14015  1.0000
  Cl  Cl7       1.0  0.66667  0.33333  0.35985  1.0000
  Cl  Cl8       1.0  0.33333  0.66667  0.85985  1.0000
  Ti  Ti1       1.0  0.16667  0.33334  0.41592  1.0000
  Ti  Ti2       1.0  0.16667  0.83333  0.41592  1.0000
  Ti  Ti3       1.0  0.66666  0.83333  0.41592  1.0000
  Ti  Ti4       1.0  0.83333  0.16667  0.91592  1.0000
  Ti  Ti5       1.0  0.33334  0.16667  0.91592  1.0000
  Ti  Ti6       1.0  0.83333  0.66666  0.91592  1.0000
  Ti  Ti7       1.0  0.83333  0.66666  0.58408  1.0000
  Ti  Ti8       1.0  0.83333  0.16667  0.58408  1.0000
  Ti  Ti9       1.0  0.33334  0.16667  0.58408  1.0000
  Ti  Ti10      1.0  0.16667  0.83333  0.08408  1.0000
  Ti  Ti11      1.0  0.66666  0.83333  0.08408  1.0000
  Ti  Ti12      1.0  0.16667  0.33334  0.08408  1.0000
