data_image0
_chemical_formula_structural       Cl9Ti13
_chemical_formula_sum              "Cl9 Ti13"
_cell_length_a       9.55823
_cell_length_b       9.55823
_cell_length_c       5.11157
_cell_angle_alpha    90
_cell_angle_beta     90
_cell_angle_gamma    120

_space_group_name_H-M_alt    "P 1"
_space_group_IT_number       1

loop_
  _space_group_symop_operation_xyz
  'x, y, z'

loop_
  _atom_site_type_symbol
  _atom_site_label
  _atom_site_symmetry_multiplicity
  _atom_site_fract_x
  _atom_site_fract_y
  _atom_site_fract_z
  _atom_site_occupancy
  Cl  Cl1       1.0  0.00000  0.00000  0.50000  1.0000
  Cl  Cl2       1.0  0.33333  0.66667  0.99745  1.0000
  Cl  Cl3       1.0  0.66667  0.33333  0.00255  1.0000
  Cl  Cl4       1.0  0.20367  0.79633  0.48966  1.0000
  Cl  Cl5       1.0  0.20367  0.40734  0.48966  1.0000
  Cl  Cl6       1.0  0.59266  0.79633  0.48966  1.0000
  Cl  Cl7       1.0  0.40734  0.20367  0.51034  1.0000
  Cl  Cl8       1.0  0.79633  0.59266  0.51034  1.0000
  Cl  Cl9       1.0  0.79633  0.20367  0.51034  1.0000
  Ti  Ti1       1.0  0.00000  0.00000  0.00000  1.0000
  Ti  Ti2       1.0  0.50000  0.00000  0.00000  1.0000
  Ti  Ti3       1.0  0.00000  0.50000  0.00000  1.0000
  Ti  Ti4       1.0  0.50000  0.50000  0.00000  1.0000
  Ti  Ti5       1.0  0.50000  0.00000  0.50000  1.0000
  Ti  Ti6       1.0  0.00000  0.50000  0.50000  1.0000
  Ti  Ti7       1.0  0.50000  0.50000  0.50000  1.0000
  Ti  Ti8       1.0  0.16833  0.83167  0.97459  1.0000
  Ti  Ti9       1.0  0.16833  0.33665  0.97459  1.0000
  Ti  Ti10      1.0  0.66335  0.83167  0.97459  1.0000
  Ti  Ti11      1.0  0.33665  0.16833  0.02541  1.0000
  Ti  Ti12      1.0  0.83167  0.66335  0.02541  1.0000
  Ti  Ti13      1.0  0.83167  0.16833  0.02541  1.0000
