data_image0
_chemical_formula_structural       Se9Ti13
_chemical_formula_sum              "Se9 Ti13"
_cell_length_a       8.87178
_cell_length_b       8.87178
_cell_length_c       5.33764
_cell_angle_alpha    90
_cell_angle_beta     90
_cell_angle_gamma    120

_space_group_name_H-M_alt    "P 1"
_space_group_IT_number       1

loop_
  _space_group_symop_operation_xyz
  'x, y, z'

loop_
  _atom_site_type_symbol
  _atom_site_label
  _atom_site_symmetry_multiplicity
  _atom_site_fract_x
  _atom_site_fract_y
  _atom_site_fract_z
  _atom_site_occupancy
  Se  Se1       1.0  0.00000  0.00000  0.50000  1.0000
  Se  Se2       1.0  0.33333  0.66667  0.72546  1.0000
  Se  Se3       1.0  0.66667  0.33333  0.27454  1.0000
  Se  Se4       1.0  0.19170  0.80830  0.22018  1.0000
  Se  Se5       1.0  0.19170  0.38339  0.22018  1.0000
  Se  Se6       1.0  0.61661  0.80830  0.22018  1.0000
  Se  Se7       1.0  0.38339  0.19170  0.77982  1.0000
  Se  Se8       1.0  0.80830  0.61661  0.77982  1.0000
  Se  Se9       1.0  0.80830  0.19170  0.77982  1.0000
  Ti  Ti1       1.0  0.00000  0.00000  0.00000  1.0000
  Ti  Ti2       1.0  0.50000  0.00000  0.00000  1.0000
  Ti  Ti3       1.0  0.00000  0.50000  0.00000  1.0000
  Ti  Ti4       1.0  0.50000  0.50000  0.00000  1.0000
  Ti  Ti5       1.0  0.50000  0.00000  0.50000  1.0000
  Ti  Ti6       1.0  0.00000  0.50000  0.50000  1.0000
  Ti  Ti7       1.0  0.50000  0.50000  0.50000  1.0000
  Ti  Ti8       1.0  0.15516  0.84484  0.72212  1.0000
  Ti  Ti9       1.0  0.15516  0.31032  0.72212  1.0000
  Ti  Ti10      1.0  0.68968  0.84484  0.72212  1.0000
  Ti  Ti11      1.0  0.31032  0.15516  0.27788  1.0000
  Ti  Ti12      1.0  0.84484  0.68968  0.27788  1.0000
  Ti  Ti13      1.0  0.84484  0.15516  0.27788  1.0000
