data_image0
_chemical_formula_structural       Cl6V2
_chemical_formula_sum              "Cl6 V2"
_cell_length_a       9.57303
_cell_length_b       9.53494
_cell_length_c       3.20349
_cell_angle_alpha    90
_cell_angle_beta     90
_cell_angle_gamma    120.132

_space_group_name_H-M_alt    "P 1"
_space_group_IT_number       1

loop_
  _space_group_symop_operation_xyz
  'x, y, z'

loop_
  _atom_site_type_symbol
  _atom_site_label
  _atom_site_symmetry_multiplicity
  _atom_site_fract_x
  _atom_site_fract_y
  _atom_site_fract_z
  _atom_site_occupancy
  Cl  Cl1       1.0  0.78235  0.22917  0.75000  1.0000
  Cl  Cl2       1.0  0.44682  0.22917  0.75000  1.0000
  Cl  Cl3       1.0  0.77356  0.54713  0.75000  1.0000
  Cl  Cl4       1.0  0.23111  0.77999  0.25000  1.0000
  Cl  Cl5       1.0  0.54889  0.77999  0.25000  1.0000
  Cl  Cl6       1.0  0.22242  0.44485  0.25000  1.0000
  V   V1        1.0  0.66382  0.32764  0.25000  1.0000
  V   V2        1.0  0.33103  0.66206  0.75000  1.0000
