data_image0
_chemical_formula_structural       Se8V12
_chemical_formula_sum              "Se8 V12"
_cell_length_a       5.41207
_cell_length_b       5.41207
_cell_length_c       12.4994
_cell_angle_alpha    90.001
_cell_angle_beta     89.999
_cell_angle_gamma    119.992

_space_group_name_H-M_alt    "P 1"
_space_group_IT_number       1

loop_
  _space_group_symop_operation_xyz
  'x, y, z'

loop_
  _atom_site_type_symbol
  _atom_site_label
  _atom_site_symmetry_multiplicity
  _atom_site_fract_x
  _atom_site_fract_y
  _atom_site_fract_z
  _atom_site_occupancy
  Se  Se1       1.0  0.00002  0.99998  0.25003  1.0000
  Se  Se2       1.0  0.00001  0.99999  0.74998  1.0000
  Se  Se3       1.0  0.33327  0.66673  0.25003  1.0000
  Se  Se4       1.0  0.66673  0.33327  0.74996  1.0000
  Se  Se5       1.0  0.33332  0.66668  0.57827  1.0000
  Se  Se6       1.0  0.66666  0.33334  0.07824  1.0000
  Se  Se7       1.0  0.66671  0.33329  0.42172  1.0000
  Se  Se8       1.0  0.33326  0.66674  0.92176  1.0000
  V   V1        1.0  0.15794  0.31585  0.41114  1.0000
  V   V2        1.0  0.15798  0.84202  0.41113  1.0000
  V   V3        1.0  0.68415  0.84206  0.41114  1.0000
  V   V4        1.0  0.84206  0.15794  0.91110  1.0000
  V   V5        1.0  0.31579  0.15783  0.91117  1.0000
  V   V6        1.0  0.84217  0.68421  0.91117  1.0000
  V   V7        1.0  0.84209  0.68411  0.58886  1.0000
  V   V8        1.0  0.84205  0.15795  0.58887  1.0000
  V   V9        1.0  0.31589  0.15791  0.58886  1.0000
  V   V10       1.0  0.15792  0.84208  0.08886  1.0000
  V   V11       1.0  0.68413  0.84215  0.08885  1.0000
  V   V12       1.0  0.15785  0.31587  0.08885  1.0000
