data_image0
_chemical_formula_structural       V6S6
_chemical_formula_sum              "V6 S6"
_cell_length_a       3.81727
_cell_length_b       3.81727
_cell_length_c       20.1806
_cell_angle_alpha    90
_cell_angle_beta     90
_cell_angle_gamma    120.183

_space_group_name_H-M_alt    "P 1"
_space_group_IT_number       1

loop_
  _space_group_symop_operation_xyz
  'x, y, z'

loop_
  _atom_site_type_symbol
  _atom_site_label
  _atom_site_symmetry_multiplicity
  _atom_site_fract_x
  _atom_site_fract_y
  _atom_site_fract_z
  _atom_site_occupancy
  V   V1        1.0  0.32588  0.67412  0.13449  1.0000
  V   V2        1.0  0.67412  0.32588  0.86551  1.0000
  V   V3        1.0  0.67412  0.32588  0.63449  1.0000
  V   V4        1.0  0.32588  0.67412  0.36551  1.0000
  V   V5        1.0  0.33485  0.66515  0.75000  1.0000
  V   V6        1.0  0.66515  0.33485  0.25000  1.0000
  S   S1        1.0  0.66718  0.33282  0.75000  1.0000
  S   S2        1.0  0.33282  0.66718  0.25000  1.0000
  S   S3        1.0  0.00683  0.99317  0.59921  1.0000
  S   S4        1.0  0.99317  0.00683  0.09921  1.0000
  S   S5        1.0  0.00683  0.99317  0.90079  1.0000
  S   S6        1.0  0.99317  0.00683  0.40079  1.0000
