data_image0
_chemical_formula_structural       Hg9Ti13
_chemical_formula_sum              "Hg9 Ti13"
_cell_length_a       9.28601
_cell_length_b       9.28601
_cell_length_c       5.75315
_cell_angle_alpha    90
_cell_angle_beta     90
_cell_angle_gamma    120

_space_group_name_H-M_alt    "P 1"
_space_group_IT_number       1

loop_
  _space_group_symop_operation_xyz
  'x, y, z'

loop_
  _atom_site_type_symbol
  _atom_site_label
  _atom_site_symmetry_multiplicity
  _atom_site_fract_x
  _atom_site_fract_y
  _atom_site_fract_z
  _atom_site_occupancy
  Hg  Hg1       1.0  0.00000  0.00000  0.50000  1.0000
  Hg  Hg2       1.0  0.33333  0.66667  0.75179  1.0000
  Hg  Hg3       1.0  0.66667  0.33333  0.24821  1.0000
  Hg  Hg4       1.0  0.19166  0.80834  0.24805  1.0000
  Hg  Hg5       1.0  0.19166  0.38332  0.24805  1.0000
  Hg  Hg6       1.0  0.61668  0.80834  0.24805  1.0000
  Hg  Hg7       1.0  0.38332  0.19166  0.75195  1.0000
  Hg  Hg8       1.0  0.80834  0.61668  0.75195  1.0000
  Hg  Hg9       1.0  0.80834  0.19166  0.75195  1.0000
  Ti  Ti1       1.0  0.00000  0.00000  0.00000  1.0000
  Ti  Ti2       1.0  0.50000  0.00000  0.00000  1.0000
  Ti  Ti3       1.0  0.00000  0.50000  0.00000  1.0000
  Ti  Ti4       1.0  0.50000  0.50000  0.00000  1.0000
  Ti  Ti5       1.0  0.50000  0.00000  0.50000  1.0000
  Ti  Ti6       1.0  0.00000  0.50000  0.50000  1.0000
  Ti  Ti7       1.0  0.50000  0.50000  0.50000  1.0000
  Ti  Ti8       1.0  0.15825  0.84175  0.75128  1.0000
  Ti  Ti9       1.0  0.15825  0.31650  0.75128  1.0000
  Ti  Ti10      1.0  0.68350  0.84175  0.75128  1.0000
  Ti  Ti11      1.0  0.31650  0.15825  0.24872  1.0000
  Ti  Ti12      1.0  0.84175  0.68350  0.24872  1.0000
  Ti  Ti13      1.0  0.84175  0.15825  0.24872  1.0000
