data_image0
_chemical_formula_structural       Ti4Se8
_chemical_formula_sum              "Ti4 Se8"
_cell_length_a       6.33098
_cell_length_b       6.33168
_cell_length_c       6.32967
_cell_angle_alpha    90
_cell_angle_beta     90
_cell_angle_gamma    90

_space_group_name_H-M_alt    "P 1"
_space_group_IT_number       1

loop_
  _space_group_symop_operation_xyz
  'x, y, z'

loop_
  _atom_site_type_symbol
  _atom_site_label
  _atom_site_symmetry_multiplicity
  _atom_site_fract_x
  _atom_site_fract_y
  _atom_site_fract_z
  _atom_site_occupancy
  Ti  Ti1       1.0  0.50000  0.00000  0.50000  1.0000
  Ti  Ti2       1.0  0.00000  0.50000  0.50000  1.0000
  Ti  Ti3       1.0  0.50000  0.50000  0.00000  1.0000
  Ti  Ti4       1.0  0.00000  0.00000  0.00000  1.0000
  Se  Se1       1.0  0.64048  0.13972  0.14033  1.0000
  Se  Se2       1.0  0.14048  0.36028  0.85967  1.0000
  Se  Se3       1.0  0.35952  0.63972  0.35967  1.0000
  Se  Se4       1.0  0.85952  0.86028  0.64033  1.0000
  Se  Se5       1.0  0.14048  0.13972  0.35967  1.0000
  Se  Se6       1.0  0.64048  0.36028  0.64033  1.0000
  Se  Se7       1.0  0.85952  0.63972  0.14033  1.0000
  Se  Se8       1.0  0.35952  0.86028  0.85967  1.0000
