data_image0
_chemical_formula_structural       V8Br16
_chemical_formula_sum              "V8 Br16"
_cell_length_a       11.3219
_cell_length_b       7.61274
_cell_length_c       9.28249
_cell_angle_alpha    90
_cell_angle_beta     90
_cell_angle_gamma    90

_space_group_name_H-M_alt    "P 1"
_space_group_IT_number       1

loop_
  _space_group_symop_operation_xyz
  'x, y, z'

loop_
  _atom_site_type_symbol
  _atom_site_label
  _atom_site_symmetry_multiplicity
  _atom_site_fract_x
  _atom_site_fract_y
  _atom_site_fract_z
  _atom_site_occupancy
  V   V1        1.0  0.50457  0.82068  0.12864  1.0000
  V   V2        1.0  0.99543  0.67932  0.62864  1.0000
  V   V3        1.0  0.99543  0.32068  0.87136  1.0000
  V   V4        1.0  0.50457  0.17932  0.37136  1.0000
  V   V5        1.0  0.49543  0.17932  0.87136  1.0000
  V   V6        1.0  0.00457  0.32068  0.37136  1.0000
  V   V7        1.0  0.00457  0.67932  0.12864  1.0000
  V   V8        1.0  0.49543  0.82068  0.62864  1.0000
  Br  Br1       1.0  0.16821  0.50000  0.25000  1.0000
  Br  Br2       1.0  0.33179  0.00000  0.75000  1.0000
  Br  Br3       1.0  0.83179  0.50000  0.75000  1.0000
  Br  Br4       1.0  0.66821  0.00000  0.25000  1.0000
  Br  Br5       1.0  0.38998  0.88262  0.38965  1.0000
  Br  Br6       1.0  0.11002  0.61738  0.88965  1.0000
  Br  Br7       1.0  0.11002  0.38262  0.61035  1.0000
  Br  Br8       1.0  0.38998  0.11738  0.11035  1.0000
  Br  Br9       1.0  0.61002  0.11738  0.61035  1.0000
  Br  Br10      1.0  0.88998  0.38262  0.11035  1.0000
  Br  Br11      1.0  0.88998  0.61738  0.38965  1.0000
  Br  Br12      1.0  0.61002  0.88262  0.88965  1.0000
  Br  Br13      1.0  0.50000  0.50000  0.00000  1.0000
  Br  Br14      1.0  0.00000  0.00000  0.50000  1.0000
  Br  Br15      1.0  0.00000  0.00000  0.00000  1.0000
  Br  Br16      1.0  0.50000  0.50000  0.50000  1.0000
