data_image0
_chemical_formula_structural       F9V13
_chemical_formula_sum              "F9 V13"
_cell_length_a       7.71669
_cell_length_b       7.71669
_cell_length_c       5.79033
_cell_angle_alpha    90
_cell_angle_beta     90
_cell_angle_gamma    120

_space_group_name_H-M_alt    "P 1"
_space_group_IT_number       1

loop_
  _space_group_symop_operation_xyz
  'x, y, z'

loop_
  _atom_site_type_symbol
  _atom_site_label
  _atom_site_symmetry_multiplicity
  _atom_site_fract_x
  _atom_site_fract_y
  _atom_site_fract_z
  _atom_site_occupancy
  F   F1        1.0  0.00000  0.00000  0.50000  1.0000
  F   F2        1.0  0.33333  0.66667  0.06319  1.0000
  F   F3        1.0  0.66667  0.33333  0.93681  1.0000
  F   F4        1.0  0.20596  0.79404  0.50013  1.0000
  F   F5        1.0  0.20596  0.41192  0.50013  1.0000
  F   F6        1.0  0.58808  0.79404  0.50013  1.0000
  F   F7        1.0  0.41192  0.20596  0.49987  1.0000
  F   F8        1.0  0.79404  0.58808  0.49987  1.0000
  F   F9        1.0  0.79404  0.20596  0.49987  1.0000
  V   V1        1.0  0.00000  0.00000  0.00000  1.0000
  V   V2        1.0  0.50000  0.00000  0.00000  1.0000
  V   V3        1.0  0.00000  0.50000  0.00000  1.0000
  V   V4        1.0  0.50000  0.50000  0.00000  1.0000
  V   V5        1.0  0.50000  0.00000  0.50000  1.0000
  V   V6        1.0  0.00000  0.50000  0.50000  1.0000
  V   V7        1.0  0.50000  0.50000  0.50000  1.0000
  V   V8        1.0  0.15381  0.84619  0.83120  1.0000
  V   V9        1.0  0.15381  0.30763  0.83120  1.0000
  V   V10       1.0  0.69237  0.84619  0.83120  1.0000
  V   V11       1.0  0.30763  0.15381  0.16880  1.0000
  V   V12       1.0  0.84619  0.69237  0.16880  1.0000
  V   V13       1.0  0.84619  0.15381  0.16880  1.0000
