data_image0
_chemical_formula_structural       Se14V7
_chemical_formula_sum              "Se14 V7"
_cell_length_a       4.71317
_cell_length_b       3.40538
_cell_length_c       30.7951
_cell_angle_alpha    85.0888
_cell_angle_beta     95.274
_cell_angle_gamma    109.485

_space_group_name_H-M_alt    "P 1"
_space_group_IT_number       1

loop_
  _space_group_symop_operation_xyz
  'x, y, z'

loop_
  _atom_site_type_symbol
  _atom_site_label
  _atom_site_symmetry_multiplicity
  _atom_site_fract_x
  _atom_site_fract_y
  _atom_site_fract_z
  _atom_site_occupancy
  Se  Se1       1.0  0.62288  0.22225  0.79969  1.0000
  Se  Se2       1.0  0.14185  0.93588  0.87254  1.0000
  Se  Se3       1.0  0.12875  0.56072  0.73278  1.0000
  Se  Se4       1.0  0.50523  0.79645  0.65670  1.0000
  Se  Se5       1.0  0.90664  0.02615  0.60359  1.0000
  Se  Se6       1.0  0.29229  0.26321  0.52962  1.0000
  Se  Se7       1.0  0.78908  0.59237  0.45746  1.0000
  Se  Se8       1.0  0.65902  0.61035  0.29146  1.0000
  Se  Se9       1.0  0.18920  0.34515  0.36690  1.0000
  Se  Se10      1.0  0.99673  0.35385  0.07790  1.0000
  Se  Se11      1.0  0.12458  0.16414  0.22927  1.0000
  Se  Se12      1.0  0.57076  0.98096  0.15495  1.0000
  Se  Se13      1.0  0.35356  0.61003  0.02006  1.0000
  Se  Se14      1.0  0.74232  0.32147  0.95866  1.0000
  V   V1        1.0  0.93010  0.90239  0.01435  1.0000
  V   V2        1.0  0.21271  0.51312  0.81860  1.0000
  V   V3        1.0  0.54034  0.26539  0.71659  1.0000
  V   V4        1.0  0.87629  0.55893  0.54340  1.0000
  V   V5        1.0  0.18737  0.28284  0.44658  1.0000
  V   V6        1.0  0.24535  0.92133  0.30972  1.0000
  V   V7        1.0  0.69239  0.49988  0.20948  1.0000
