data_image0
_chemical_formula_structural       V4F18
_chemical_formula_sum              "V4 F18"
_cell_length_a       7.52476
_cell_length_b       7.12868
_cell_length_c       7.16513
_cell_angle_alpha    92.6018
_cell_angle_beta     90.8356
_cell_angle_gamma    89.0268

_space_group_name_H-M_alt    "P 1"
_space_group_IT_number       1

loop_
  _space_group_symop_operation_xyz
  'x, y, z'

loop_
  _atom_site_type_symbol
  _atom_site_label
  _atom_site_symmetry_multiplicity
  _atom_site_fract_x
  _atom_site_fract_y
  _atom_site_fract_z
  _atom_site_occupancy
  V   V1        1.0  0.03950  0.18006  0.13605  1.0000
  V   V2        1.0  0.96050  0.81994  0.86395  1.0000
  V   V3        1.0  0.45551  0.36902  0.31732  1.0000
  V   V4        1.0  0.54449  0.63098  0.68268  1.0000
  F   F1        1.0  0.96262  0.04430  0.31374  1.0000
  F   F2        1.0  0.03738  0.95570  0.68626  1.0000
  F   F3        1.0  0.37609  0.46031  0.60102  1.0000
  F   F4        1.0  0.62391  0.53969  0.39898  1.0000
  F   F5        1.0  0.45463  0.68124  0.90120  1.0000
  F   F6        1.0  0.54537  0.31876  0.09880  1.0000
  F   F7        1.0  0.81965  0.75306  0.04117  1.0000
  F   F8        1.0  0.18035  0.24694  0.95883  1.0000
  F   F9        1.0  0.25112  0.20428  0.29508  1.0000
  F   F10       1.0  0.74888  0.79572  0.70492  1.0000
  F   F11       1.0  0.69946  0.45442  0.73717  1.0000
  F   F12       1.0  0.30054  0.54558  0.26283  1.0000
  F   F13       1.0  0.13312  0.90195  0.03215  1.0000
  F   F14       1.0  0.86688  0.09805  0.96785  1.0000
  F   F15       1.0  0.06173  0.60581  0.80380  1.0000
  F   F16       1.0  0.93827  0.39419  0.19620  1.0000
  F   F17       1.0  0.55009  0.18606  0.44110  1.0000
  F   F18       1.0  0.44991  0.81394  0.55890  1.0000
