data_image0
_chemical_formula_structural       Ti6Se6
_chemical_formula_sum              "Ti6 Se6"
_cell_length_a       3.58892
_cell_length_b       3.58892
_cell_length_c       22.066
_cell_angle_alpha    90
_cell_angle_beta     90
_cell_angle_gamma    91.4426

_space_group_name_H-M_alt    "P 1"
_space_group_IT_number       1

loop_
  _space_group_symop_operation_xyz
  'x, y, z'

loop_
  _atom_site_type_symbol
  _atom_site_label
  _atom_site_symmetry_multiplicity
  _atom_site_fract_x
  _atom_site_fract_y
  _atom_site_fract_z
  _atom_site_occupancy
  Ti  Ti1       1.0  0.41409  0.58591  0.14532  1.0000
  Ti  Ti2       1.0  0.58591  0.41409  0.85468  1.0000
  Ti  Ti3       1.0  0.58591  0.41409  0.64532  1.0000
  Ti  Ti4       1.0  0.41409  0.58591  0.35468  1.0000
  Ti  Ti5       1.0  0.24031  0.75969  0.75000  1.0000
  Ti  Ti6       1.0  0.75969  0.24031  0.25000  1.0000
  Se  Se1       1.0  0.74399  0.25601  0.75000  1.0000
  Se  Se2       1.0  0.25601  0.74399  0.25000  1.0000
  Se  Se3       1.0  0.09788  0.90212  0.61237  1.0000
  Se  Se4       1.0  0.90212  0.09788  0.11237  1.0000
  Se  Se5       1.0  0.09788  0.90212  0.88763  1.0000
  Se  Se6       1.0  0.90212  0.09788  0.38763  1.0000
