data_image0
_chemical_formula_structural       VF4
_chemical_formula_sum              "V1 F4"
_cell_length_a       5.21274
_cell_length_b       5.21274
_cell_length_c       5.21274
_cell_angle_alpha    93.2201
_cell_angle_beta     93.2201
_cell_angle_gamma    152.58

_space_group_name_H-M_alt    "P 1"
_space_group_IT_number       1

loop_
  _space_group_symop_operation_xyz
  'x, y, z'

loop_
  _atom_site_type_symbol
  _atom_site_label
  _atom_site_symmetry_multiplicity
  _atom_site_fract_x
  _atom_site_fract_y
  _atom_site_fract_z
  _atom_site_occupancy
  V   V1        1.0  0.00000  0.00000  0.00000  1.0000
  F   F1        1.0  0.53753  0.71611  0.25364  1.0000
  F   F2        1.0  0.46247  0.28389  0.74636  1.0000
  F   F3        1.0  0.28389  0.53753  0.82142  1.0000
  F   F4        1.0  0.71611  0.46247  0.17858  1.0000
