data_image0
_chemical_formula_structural       VHg5
_chemical_formula_sum              "V1 Hg5"
_cell_length_a       5.85582
_cell_length_b       5.85582
_cell_length_c       5.85582
_cell_angle_alpha    59.5244
_cell_angle_beta     59.5244
_cell_angle_gamma    59.5244

_space_group_name_H-M_alt    "P 1"
_space_group_IT_number       1

loop_
  _space_group_symop_operation_xyz
  'x, y, z'

loop_
  _atom_site_type_symbol
  _atom_site_label
  _atom_site_symmetry_multiplicity
  _atom_site_fract_x
  _atom_site_fract_y
  _atom_site_fract_z
  _atom_site_occupancy
  V   V1        1.0  0.00000  0.00000  0.00000  1.0000
  Hg  Hg1       1.0  0.64619  0.64619  0.64619  1.0000
  Hg  Hg2       1.0  0.10877  0.50000  0.89123  1.0000
  Hg  Hg3       1.0  0.50000  0.89123  0.10877  1.0000
  Hg  Hg4       1.0  0.89123  0.10877  0.50000  1.0000
  Hg  Hg5       1.0  0.35381  0.35381  0.35381  1.0000
