data_image0
_chemical_formula_structural       V8Hg12
_chemical_formula_sum              "V8 Hg12"
_cell_length_a       2.98573
_cell_length_b       12.1452
_cell_length_c       10.7882
_cell_angle_alpha    90
_cell_angle_beta     90
_cell_angle_gamma    90

_space_group_name_H-M_alt    "P 1"
_space_group_IT_number       1

loop_
  _space_group_symop_operation_xyz
  'x, y, z'

loop_
  _atom_site_type_symbol
  _atom_site_label
  _atom_site_symmetry_multiplicity
  _atom_site_fract_x
  _atom_site_fract_y
  _atom_site_fract_z
  _atom_site_occupancy
  V   V1        1.0  0.25000  0.00742  0.91577  1.0000
  V   V2        1.0  0.75000  0.99258  0.08423  1.0000
  V   V3        1.0  0.75000  0.50742  0.58423  1.0000
  V   V4        1.0  0.25000  0.49258  0.41577  1.0000
  V   V5        1.0  0.25000  0.07199  0.47367  1.0000
  V   V6        1.0  0.75000  0.92801  0.52633  1.0000
  V   V7        1.0  0.75000  0.57199  0.02633  1.0000
  V   V8        1.0  0.25000  0.42801  0.97367  1.0000
  Hg  Hg1       1.0  0.25000  0.34488  0.72521  1.0000
  Hg  Hg2       1.0  0.75000  0.65512  0.27479  1.0000
  Hg  Hg3       1.0  0.75000  0.84488  0.77479  1.0000
  Hg  Hg4       1.0  0.25000  0.15512  0.22521  1.0000
  Hg  Hg5       1.0  0.25000  0.89688  0.30012  1.0000
  Hg  Hg6       1.0  0.75000  0.10312  0.69988  1.0000
  Hg  Hg7       1.0  0.75000  0.39688  0.19988  1.0000
  Hg  Hg8       1.0  0.25000  0.60312  0.80012  1.0000
  Hg  Hg9       1.0  0.25000  0.78555  0.03906  1.0000
  Hg  Hg10      1.0  0.75000  0.21445  0.96094  1.0000
  Hg  Hg11      1.0  0.75000  0.28555  0.46094  1.0000
  Hg  Hg12      1.0  0.25000  0.71445  0.53906  1.0000
