data_image0
_chemical_formula_structural       V9N9
_chemical_formula_sum              "V9 N9"
_cell_length_a       6.24382
_cell_length_b       6.24382
_cell_length_c       4.4162
_cell_angle_alpha    90
_cell_angle_beta     90
_cell_angle_gamma    120

_space_group_name_H-M_alt    "P 1"
_space_group_IT_number       1

loop_
  _space_group_symop_operation_xyz
  'x, y, z'

loop_
  _atom_site_type_symbol
  _atom_site_label
  _atom_site_symmetry_multiplicity
  _atom_site_fract_x
  _atom_site_fract_y
  _atom_site_fract_z
  _atom_site_occupancy
  V   V1        1.0  1.00000  0.66717  0.22570  1.0000
  V   V2        1.0  0.66717  1.00000  0.22570  1.0000
  V   V3        1.0  0.33283  0.33283  0.22570  1.0000
  V   V4        1.0  0.33393  1.00000  0.89235  1.0000
  V   V5        1.0  0.66607  0.66607  0.89235  1.0000
  V   V6        1.0  1.00000  0.33393  0.89235  1.0000
  V   V7        1.0  0.33333  0.66667  0.55873  1.0000
  V   V8        1.0  0.00000  0.00000  0.55961  1.0000
  V   V9        1.0  0.66667  0.33333  0.55873  1.0000
  N   N1        1.0  1.00000  0.66674  0.72529  1.0000
  N   N2        1.0  0.66674  1.00000  0.72529  1.0000
  N   N3        1.0  0.33326  0.33326  0.72529  1.0000
  N   N4        1.0  0.33347  1.00000  0.39185  1.0000
  N   N5        1.0  0.66653  0.66653  0.39185  1.0000
  N   N6        1.0  1.00000  0.33347  0.39185  1.0000
  N   N7        1.0  0.33333  0.66667  0.05812  1.0000
  N   N8        1.0  0.00000  0.00000  0.05948  1.0000
  N   N9        1.0  0.66667  0.33333  0.05812  1.0000
