data_image0
_chemical_formula_structural       Hg9V13
_chemical_formula_sum              "Hg9 V13"
_cell_length_a       9.05002
_cell_length_b       9.05002
_cell_length_c       5.41805
_cell_angle_alpha    90
_cell_angle_beta     90
_cell_angle_gamma    120

_space_group_name_H-M_alt    "P 1"
_space_group_IT_number       1

loop_
  _space_group_symop_operation_xyz
  'x, y, z'

loop_
  _atom_site_type_symbol
  _atom_site_label
  _atom_site_symmetry_multiplicity
  _atom_site_fract_x
  _atom_site_fract_y
  _atom_site_fract_z
  _atom_site_occupancy
  Hg  Hg1       1.0  0.00000  0.00000  0.50000  1.0000
  Hg  Hg2       1.0  0.33333  0.66667  0.76338  1.0000
  Hg  Hg3       1.0  0.66667  0.33333  0.23662  1.0000
  Hg  Hg4       1.0  0.19477  0.80523  0.26223  1.0000
  Hg  Hg5       1.0  0.19477  0.38953  0.26223  1.0000
  Hg  Hg6       1.0  0.61047  0.80523  0.26223  1.0000
  Hg  Hg7       1.0  0.38953  0.19477  0.73777  1.0000
  Hg  Hg8       1.0  0.80523  0.61047  0.73777  1.0000
  Hg  Hg9       1.0  0.80523  0.19477  0.73777  1.0000
  V   V1        1.0  0.00000  0.00000  0.00000  1.0000
  V   V2        1.0  0.50000  0.00000  0.00000  1.0000
  V   V3        1.0  0.00000  0.50000  0.00000  1.0000
  V   V4        1.0  0.50000  0.50000  0.00000  1.0000
  V   V5        1.0  0.50000  0.00000  0.50000  1.0000
  V   V6        1.0  0.00000  0.50000  0.50000  1.0000
  V   V7        1.0  0.50000  0.50000  0.50000  1.0000
  V   V8        1.0  0.15468  0.84532  0.77339  1.0000
  V   V9        1.0  0.15468  0.30936  0.77339  1.0000
  V   V10       1.0  0.69064  0.84532  0.77339  1.0000
  V   V11       1.0  0.30936  0.15468  0.22661  1.0000
  V   V12       1.0  0.84532  0.69064  0.22661  1.0000
  V   V13       1.0  0.84532  0.15468  0.22661  1.0000
