data_image0
_chemical_formula_structural       N10Ti6
_chemical_formula_sum              "N10 Ti6"
_cell_length_a       6.21988
_cell_length_b       6.21988
_cell_length_c       6.21988
_cell_angle_alpha    127.927
_cell_angle_beta     127.927
_cell_angle_gamma    76.7434

_space_group_name_H-M_alt    "P 1"
_space_group_IT_number       1

loop_
  _space_group_symop_operation_xyz
  'x, y, z'

loop_
  _atom_site_type_symbol
  _atom_site_label
  _atom_site_symmetry_multiplicity
  _atom_site_fract_x
  _atom_site_fract_y
  _atom_site_fract_z
  _atom_site_occupancy
  N   N1        1.0  0.50164  0.71010  0.50000  1.0000
  N   N2        1.0  0.49836  0.28990  0.50000  1.0000
  N   N3        1.0  0.50000  0.50000  1.00000  1.0000
  N   N4        1.0  0.00000  0.00000  0.00000  1.0000
  N   N5        1.0  0.21010  0.00164  0.50000  1.0000
  N   N6        1.0  0.00164  0.50164  0.79154  1.0000
  N   N7        1.0  0.71010  0.21010  0.20846  1.0000
  N   N8        1.0  0.28990  0.78990  0.79154  1.0000
  N   N9        1.0  0.99836  0.49836  0.20846  1.0000
  N   N10       1.0  0.78990  0.99836  0.50000  1.0000
  Ti  Ti1       1.0  0.83642  0.66358  0.50000  1.0000
  Ti  Ti2       1.0  0.66358  0.16358  0.82716  1.0000
  Ti  Ti3       1.0  0.33642  0.83642  0.17284  1.0000
  Ti  Ti4       1.0  0.16358  0.33642  0.50000  1.0000
  Ti  Ti5       1.0  0.25000  0.25000  0.00000  1.0000
  Ti  Ti6       1.0  0.75000  0.75000  0.00000  1.0000
