data_image0
_chemical_formula_structural       VHg4
_chemical_formula_sum              "V1 Hg4"
_cell_length_a       5.51603
_cell_length_b       5.51603
_cell_length_c       5.51603
_cell_angle_alpha    99.0316
_cell_angle_beta     99.0316
_cell_angle_gamma    133.318

_space_group_name_H-M_alt    "P 1"
_space_group_IT_number       1

loop_
  _space_group_symop_operation_xyz
  'x, y, z'

loop_
  _atom_site_type_symbol
  _atom_site_label
  _atom_site_symmetry_multiplicity
  _atom_site_fract_x
  _atom_site_fract_y
  _atom_site_fract_z
  _atom_site_occupancy
  V   V1        1.0  0.00000  0.00000  0.00000  1.0000
  Hg  Hg1       1.0  0.60543  0.79137  0.39680  1.0000
  Hg  Hg2       1.0  0.39457  0.20863  0.60320  1.0000
  Hg  Hg3       1.0  0.20863  0.60543  0.81406  1.0000
  Hg  Hg4       1.0  0.79137  0.39457  0.18594  1.0000
