data_image0
_chemical_formula_structural       Ti4S12
_chemical_formula_sum              "Ti4 S12"
_cell_length_a       12.0754
_cell_length_b       12.0754
_cell_length_c       4.74015
_cell_angle_alpha    90
_cell_angle_beta     90
_cell_angle_gamma    152.57

_space_group_name_H-M_alt    "P 1"
_space_group_IT_number       1

loop_
  _space_group_symop_operation_xyz
  'x, y, z'

loop_
  _atom_site_type_symbol
  _atom_site_label
  _atom_site_symmetry_multiplicity
  _atom_site_fract_x
  _atom_site_fract_y
  _atom_site_fract_z
  _atom_site_occupancy
  Ti  Ti1       1.0  0.68021  0.31979  0.00000  1.0000
  Ti  Ti2       1.0  0.31979  0.68021  0.00000  1.0000
  Ti  Ti3       1.0  0.18021  0.81979  0.50000  1.0000
  Ti  Ti4       1.0  0.81979  0.18021  0.50000  1.0000
  S   S1        1.0  0.66694  0.66694  0.99723  1.0000
  S   S2        1.0  0.16694  0.16694  0.50277  1.0000
  S   S3        1.0  0.83306  0.83306  0.49723  1.0000
  S   S4        1.0  0.36345  0.63655  0.50000  1.0000
  S   S5        1.0  0.99931  0.49931  0.75000  1.0000
  S   S6        1.0  0.86345  0.13655  0.00000  1.0000
  S   S7        1.0  0.00069  0.50069  0.25000  1.0000
  S   S8        1.0  0.33306  0.33306  0.00277  1.0000
  S   S9        1.0  0.63655  0.36345  0.50000  1.0000
  S   S10       1.0  0.13655  0.86345  0.00000  1.0000
  S   S11       1.0  0.50069  0.00069  0.25000  1.0000
  S   S12       1.0  0.49931  0.99931  0.75000  1.0000
