data_image0
_chemical_formula_structural       V4Se12
_chemical_formula_sum              "V4 Se12"
_cell_length_a       7.98937
_cell_length_b       7.98937
_cell_length_c       5.28004
_cell_angle_alpha    90
_cell_angle_beta     90
_cell_angle_gamma    115.973

_space_group_name_H-M_alt    "P 1"
_space_group_IT_number       1

loop_
  _space_group_symop_operation_xyz
  'x, y, z'

loop_
  _atom_site_type_symbol
  _atom_site_label
  _atom_site_symmetry_multiplicity
  _atom_site_fract_x
  _atom_site_fract_y
  _atom_site_fract_z
  _atom_site_occupancy
  V   V1        1.0  0.64506  0.35494  0.00000  1.0000
  V   V2        1.0  0.35494  0.64506  0.00000  1.0000
  V   V3        1.0  0.14506  0.85494  0.50000  1.0000
  V   V4        1.0  0.85494  0.14506  0.50000  1.0000
  Se  Se1       1.0  0.68327  0.68327  0.99935  1.0000
  Se  Se2       1.0  0.18327  0.18327  0.50065  1.0000
  Se  Se3       1.0  0.81673  0.81673  0.49935  1.0000
  Se  Se4       1.0  0.40207  0.59793  0.50000  1.0000
  Se  Se5       1.0  0.00204  0.50204  0.75000  1.0000
  Se  Se6       1.0  0.90207  0.09793  0.00000  1.0000
  Se  Se7       1.0  0.99796  0.49796  0.25000  1.0000
  Se  Se8       1.0  0.31673  0.31673  0.00065  1.0000
  Se  Se9       1.0  0.59793  0.40207  0.50000  1.0000
  Se  Se10      1.0  0.09793  0.90207  0.00000  1.0000
  Se  Se11      1.0  0.49796  0.99796  0.25000  1.0000
  Se  Se12      1.0  0.50204  0.00204  0.75000  1.0000
