data_image0
_chemical_formula_structural       S10V6
_chemical_formula_sum              "S10 V6"
_cell_length_a       7.30639
_cell_length_b       8.21742
_cell_length_c       6.94043
_cell_angle_alpha    127.066
_cell_angle_beta     120.486
_cell_angle_gamma    83.2652

_space_group_name_H-M_alt    "P 1"
_space_group_IT_number       1

loop_
  _space_group_symop_operation_xyz
  'x, y, z'

loop_
  _atom_site_type_symbol
  _atom_site_label
  _atom_site_symmetry_multiplicity
  _atom_site_fract_x
  _atom_site_fract_y
  _atom_site_fract_z
  _atom_site_occupancy
  S   S1        1.0  0.59485  0.77431  0.60869  1.0000
  S   S2        1.0  0.50343  0.30192  0.50956  1.0000
  S   S3        1.0  0.27072  0.40923  0.95610  1.0000
  S   S4        1.0  0.05215  0.10380  0.99433  1.0000
  S   S5        1.0  0.28318  0.02041  0.53800  1.0000
  S   S6        1.0  0.97137  0.70210  0.91285  1.0000
  S   S7        1.0  0.77207  0.29370  0.25463  1.0000
  S   S8        1.0  0.30245  0.75503  0.81761  1.0000
  S   S9        1.0  0.86688  0.51174  0.10515  1.0000
  S   S10       1.0  0.73728  0.91316  0.38439  1.0000
  V   V1        1.0  0.88972  0.70532  0.54231  1.0000
  V   V2        1.0  0.67741  0.14077  0.76920  1.0000
  V   V3        1.0  0.36095  0.75783  0.19795  1.0000
  V   V4        1.0  0.17523  0.29907  0.50459  1.0000
  V   V5        1.0  0.38648  0.14799  0.00808  1.0000
  V   V6        1.0  0.65583  0.66362  0.89656  1.0000
