data_image0
_chemical_formula_structural       V4Br12
_chemical_formula_sum              "V4 Br12"
_cell_length_a       7.6864
_cell_length_b       7.6864
_cell_length_c       9.03769
_cell_angle_alpha    90
_cell_angle_beta     90
_cell_angle_gamma    94.2166

_space_group_name_H-M_alt    "P 1"
_space_group_IT_number       1

loop_
  _space_group_symop_operation_xyz
  'x, y, z'

loop_
  _atom_site_type_symbol
  _atom_site_label
  _atom_site_symmetry_multiplicity
  _atom_site_fract_x
  _atom_site_fract_y
  _atom_site_fract_z
  _atom_site_occupancy
  V   V1        1.0  0.66362  0.33638  0.00000  1.0000
  V   V2        1.0  0.33638  0.66362  0.00000  1.0000
  V   V3        1.0  0.16362  0.83638  0.50000  1.0000
  V   V4        1.0  0.83638  0.16362  0.50000  1.0000
  Br  Br1       1.0  0.64033  0.64033  0.10215  1.0000
  Br  Br2       1.0  0.14033  0.14033  0.39785  1.0000
  Br  Br3       1.0  0.85967  0.85967  0.60215  1.0000
  Br  Br4       1.0  0.37010  0.62990  0.50000  1.0000
  Br  Br5       1.0  0.90366  0.40366  0.75000  1.0000
  Br  Br6       1.0  0.87010  0.12990  0.00000  1.0000
  Br  Br7       1.0  0.09634  0.59634  0.25000  1.0000
  Br  Br8       1.0  0.35967  0.35967  0.89785  1.0000
  Br  Br9       1.0  0.62990  0.37010  0.50000  1.0000
  Br  Br10      1.0  0.12990  0.87010  0.00000  1.0000
  Br  Br11      1.0  0.59634  0.09634  0.25000  1.0000
  Br  Br12      1.0  0.40366  0.90366  0.75000  1.0000
