data_image0
_chemical_formula_structural       Ti2N6
_chemical_formula_sum              "Ti2 N6"
_cell_length_a       4.65548
_cell_length_b       4.65548
_cell_length_c       4.01398
_cell_angle_alpha    90
_cell_angle_beta     90
_cell_angle_gamma    120

_space_group_name_H-M_alt    "P 1"
_space_group_IT_number       1

loop_
  _space_group_symop_operation_xyz
  'x, y, z'

loop_
  _atom_site_type_symbol
  _atom_site_label
  _atom_site_symmetry_multiplicity
  _atom_site_fract_x
  _atom_site_fract_y
  _atom_site_fract_z
  _atom_site_occupancy
  Ti  Ti1       1.0  0.33333  0.66667  0.75000  1.0000
  Ti  Ti2       1.0  0.66667  0.33333  0.25000  1.0000
  N   N1        1.0  0.22167  0.44334  0.25000  1.0000
  N   N2        1.0  0.55666  0.77833  0.25000  1.0000
  N   N3        1.0  0.22167  0.77833  0.25000  1.0000
  N   N4        1.0  0.77833  0.55666  0.75000  1.0000
  N   N5        1.0  0.44334  0.22167  0.75000  1.0000
  N   N6        1.0  0.77833  0.22167  0.75000  1.0000
