data_image0
_chemical_formula_structural       Hg6V2
_chemical_formula_sum              "Hg6 V2"
_cell_length_a       6.28556
_cell_length_b       6.28556
_cell_length_c       4.93824
_cell_angle_alpha    90
_cell_angle_beta     90
_cell_angle_gamma    120

_space_group_name_H-M_alt    "P 1"
_space_group_IT_number       1

loop_
  _space_group_symop_operation_xyz
  'x, y, z'

loop_
  _atom_site_type_symbol
  _atom_site_label
  _atom_site_symmetry_multiplicity
  _atom_site_fract_x
  _atom_site_fract_y
  _atom_site_fract_z
  _atom_site_occupancy
  Hg  Hg1       1.0  0.17105  0.34211  0.25000  1.0000
  Hg  Hg2       1.0  0.65789  0.82895  0.25000  1.0000
  Hg  Hg3       1.0  0.17105  0.82895  0.25000  1.0000
  Hg  Hg4       1.0  0.82895  0.65790  0.75000  1.0000
  Hg  Hg5       1.0  0.34210  0.17105  0.75000  1.0000
  Hg  Hg6       1.0  0.82894  0.17106  0.75000  1.0000
  V   V1        1.0  0.33334  0.66666  0.75000  1.0000
  V   V2        1.0  0.66666  0.33334  0.25000  1.0000
