data_image0
_chemical_formula_structural       V2Se6
_chemical_formula_sum              "V2 Se6"
_cell_length_a       3.0009
_cell_length_b       9.04538
_cell_length_c       8.74745
_cell_angle_alpha    90
_cell_angle_beta     90
_cell_angle_gamma    90

_space_group_name_H-M_alt    "P 1"
_space_group_IT_number       1

loop_
  _space_group_symop_operation_xyz
  'x, y, z'

loop_
  _atom_site_type_symbol
  _atom_site_label
  _atom_site_symmetry_multiplicity
  _atom_site_fract_x
  _atom_site_fract_y
  _atom_site_fract_z
  _atom_site_occupancy
  V   V1        1.0  0.50000  0.30258  0.50000  1.0000
  V   V2        1.0  0.00000  0.69742  0.00000  1.0000
  Se  Se1       1.0  0.00000  0.51496  0.50000  1.0000
  Se  Se2       1.0  0.50000  0.48504  0.00000  1.0000
  Se  Se3       1.0  0.00000  0.19824  0.69232  1.0000
  Se  Se4       1.0  0.50000  0.80176  0.80768  1.0000
  Se  Se5       1.0  0.00000  0.19824  0.30768  1.0000
  Se  Se6       1.0  0.50000  0.80176  0.19232  1.0000
