data_image0
_chemical_formula_structural       F8V12
_chemical_formula_sum              "F8 V12"
_cell_length_a       4.94658
_cell_length_b       4.94658
_cell_length_c       12.6322
_cell_angle_alpha    103.607
_cell_angle_beta     76.3927
_cell_angle_gamma    116.115

_space_group_name_H-M_alt    "P 1"
_space_group_IT_number       1

loop_
  _space_group_symop_operation_xyz
  'x, y, z'

loop_
  _atom_site_type_symbol
  _atom_site_label
  _atom_site_symmetry_multiplicity
  _atom_site_fract_x
  _atom_site_fract_y
  _atom_site_fract_z
  _atom_site_occupancy
  F   F1        1.0  0.99049  0.00951  0.30193  1.0000
  F   F2        1.0  0.00935  0.99065  0.69827  1.0000
  F   F3        1.0  0.32800  0.67200  0.23432  1.0000
  F   F4        1.0  0.67223  0.32777  0.76567  1.0000
  F   F5        1.0  0.44349  0.55651  0.67119  1.0000
  F   F6        1.0  0.79520  0.20480  0.16894  1.0000
  F   F7        1.0  0.55690  0.44310  0.32898  1.0000
  F   F8        1.0  0.20471  0.79529  0.83088  1.0000
  V   V1        1.0  0.16059  0.35765  0.42863  1.0000
  V   V2        1.0  0.16503  0.83497  0.40061  1.0000
  V   V3        1.0  0.64235  0.83941  0.42863  1.0000
  V   V4        1.0  0.74235  0.25765  0.01541  1.0000
  V   V5        1.0  0.31639  0.22811  0.90312  1.0000
  V   V6        1.0  0.77189  0.68361  0.90312  1.0000
  V   V7        1.0  0.83964  0.64241  0.57146  1.0000
  V   V8        1.0  0.83507  0.16493  0.59946  1.0000
  V   V9        1.0  0.35759  0.16036  0.57146  1.0000
  V   V10       1.0  0.25750  0.74250  0.98448  1.0000
  V   V11       1.0  0.68312  0.77190  0.09672  1.0000
  V   V12       1.0  0.22810  0.31688  0.09672  1.0000
