data_image0
_chemical_formula_structural       I10Ti6
_chemical_formula_sum              "I10 Ti6"
_cell_length_a       9.9536
_cell_length_b       9.9536
_cell_length_c       9.9536
_cell_angle_alpha    135.368
_cell_angle_beta     135.368
_cell_angle_gamma    64.9583

_space_group_name_H-M_alt    "P 1"
_space_group_IT_number       1

loop_
  _space_group_symop_operation_xyz
  'x, y, z'

loop_
  _atom_site_type_symbol
  _atom_site_label
  _atom_site_symmetry_multiplicity
  _atom_site_fract_x
  _atom_site_fract_y
  _atom_site_fract_z
  _atom_site_occupancy
  I   I1        1.0  0.54450  0.65570  0.50000  1.0000
  I   I2        1.0  0.45550  0.34430  0.50000  1.0000
  I   I3        1.0  0.50000  0.50000  0.00000  1.0000
  I   I4        1.0  0.00000  0.00000  0.00000  1.0000
  I   I5        1.0  0.15570  0.04450  0.50000  1.0000
  I   I6        1.0  0.04450  0.54450  0.88881  1.0000
  I   I7        1.0  0.65570  0.15570  0.11119  1.0000
  I   I8        1.0  0.34430  0.84430  0.88881  1.0000
  I   I9        1.0  0.95550  0.45550  0.11119  1.0000
  I   I10       1.0  0.84430  0.95550  0.50000  1.0000
  Ti  Ti1       1.0  0.83695  0.66305  0.50000  1.0000
  Ti  Ti2       1.0  0.66305  0.16305  0.82610  1.0000
  Ti  Ti3       1.0  0.33695  0.83695  0.17390  1.0000
  Ti  Ti4       1.0  0.16305  0.33695  0.50000  1.0000
  Ti  Ti5       1.0  0.25000  0.25000  0.00000  1.0000
  Ti  Ti6       1.0  0.75000  0.75000  0.00000  1.0000
