data_image0
_chemical_formula_structural       V4N12
_chemical_formula_sum              "V4 N12"
_cell_length_a       9.99376
_cell_length_b       9.99376
_cell_length_c       4.04931
_cell_angle_alpha    90
_cell_angle_beta     90
_cell_angle_gamma    157.744

_space_group_name_H-M_alt    "P 1"
_space_group_IT_number       1

loop_
  _space_group_symop_operation_xyz
  'x, y, z'

loop_
  _atom_site_type_symbol
  _atom_site_label
  _atom_site_symmetry_multiplicity
  _atom_site_fract_x
  _atom_site_fract_y
  _atom_site_fract_z
  _atom_site_occupancy
  V   V1        1.0  0.67236  0.32764  0.00000  1.0000
  V   V2        1.0  0.32764  0.67236  0.00000  1.0000
  V   V3        1.0  0.17236  0.82764  0.50000  1.0000
  V   V4        1.0  0.82764  0.17236  0.50000  1.0000
  N   N1        1.0  0.64435  0.64435  0.99977  1.0000
  N   N2        1.0  0.14435  0.14435  0.50023  1.0000
  N   N3        1.0  0.85565  0.85565  0.49977  1.0000
  N   N4        1.0  0.36290  0.63710  0.50000  1.0000
  N   N5        1.0  0.99979  0.49979  0.75000  1.0000
  N   N6        1.0  0.86290  0.13710  0.00000  1.0000
  N   N7        1.0  0.00021  0.50021  0.25000  1.0000
  N   N8        1.0  0.35565  0.35565  0.00023  1.0000
  N   N9        1.0  0.63710  0.36290  0.50000  1.0000
  N   N10       1.0  0.13710  0.86290  0.00000  1.0000
  N   N11       1.0  0.50021  0.00021  0.25000  1.0000
  N   N12       1.0  0.49979  0.99979  0.75000  1.0000
