data_image0
_chemical_formula_structural       Ti4N12
_chemical_formula_sum              "Ti4 N12"
_cell_length_a       10.484
_cell_length_b       10.484
_cell_length_c       4.05353
_cell_angle_alpha    90
_cell_angle_beta     90
_cell_angle_gamma    157.976

_space_group_name_H-M_alt    "P 1"
_space_group_IT_number       1

loop_
  _space_group_symop_operation_xyz
  'x, y, z'

loop_
  _atom_site_type_symbol
  _atom_site_label
  _atom_site_symmetry_multiplicity
  _atom_site_fract_x
  _atom_site_fract_y
  _atom_site_fract_z
  _atom_site_occupancy
  Ti  Ti1       1.0  0.66820  0.33180  0.00000  1.0000
  Ti  Ti2       1.0  0.33180  0.66820  0.00000  1.0000
  Ti  Ti3       1.0  0.16820  0.83180  0.50000  1.0000
  Ti  Ti4       1.0  0.83180  0.16820  0.50000  1.0000
  N   N1        1.0  0.63891  0.63891  0.00050  1.0000
  N   N2        1.0  0.13891  0.13891  0.49950  1.0000
  N   N3        1.0  0.86109  0.86109  0.50050  1.0000
  N   N4        1.0  0.36049  0.63951  0.50000  1.0000
  N   N5        1.0  0.00023  0.50023  0.75000  1.0000
  N   N6        1.0  0.86049  0.13951  0.00000  1.0000
  N   N7        1.0  0.99977  0.49977  0.25000  1.0000
  N   N8        1.0  0.36109  0.36109  0.99950  1.0000
  N   N9        1.0  0.63951  0.36049  0.50000  1.0000
  N   N10       1.0  0.13951  0.86049  0.00000  1.0000
  N   N11       1.0  0.49977  0.99977  0.25000  1.0000
  N   N12       1.0  0.50023  0.00023  0.75000  1.0000
