data_image0
_chemical_formula_structural       V6Br6
_chemical_formula_sum              "V6 Br6"
_cell_length_a       4.16704
_cell_length_b       4.16704
_cell_length_c       22.3005
_cell_angle_alpha    90
_cell_angle_beta     90
_cell_angle_gamma    112.1

_space_group_name_H-M_alt    "P 1"
_space_group_IT_number       1

loop_
  _space_group_symop_operation_xyz
  'x, y, z'

loop_
  _atom_site_type_symbol
  _atom_site_label
  _atom_site_symmetry_multiplicity
  _atom_site_fract_x
  _atom_site_fract_y
  _atom_site_fract_z
  _atom_site_occupancy
  V   V1        1.0  0.36443  0.63557  0.13411  1.0000
  V   V2        1.0  0.63557  0.36443  0.86589  1.0000
  V   V3        1.0  0.63557  0.36443  0.63411  1.0000
  V   V4        1.0  0.36443  0.63557  0.36589  1.0000
  V   V5        1.0  0.36291  0.63709  0.75000  1.0000
  V   V6        1.0  0.63709  0.36291  0.25000  1.0000
  Br  Br1       1.0  0.73720  0.26280  0.75000  1.0000
  Br  Br2       1.0  0.26280  0.73720  0.25000  1.0000
  Br  Br3       1.0  0.99412  0.00588  0.59152  1.0000
  Br  Br4       1.0  0.00588  0.99412  0.09152  1.0000
  Br  Br5       1.0  0.99412  0.00588  0.90848  1.0000
  Br  Br6       1.0  0.00588  0.99412  0.40848  1.0000
