data_image0
_chemical_formula_structural       Ti4Hg12
_chemical_formula_sum              "Ti4 Hg12"
_cell_length_a       9.09771
_cell_length_b       9.09771
_cell_length_c       6.24429
_cell_angle_alpha    90
_cell_angle_beta     90
_cell_angle_gamma    139.766

_space_group_name_H-M_alt    "P 1"
_space_group_IT_number       1

loop_
  _space_group_symop_operation_xyz
  'x, y, z'

loop_
  _atom_site_type_symbol
  _atom_site_label
  _atom_site_symmetry_multiplicity
  _atom_site_fract_x
  _atom_site_fract_y
  _atom_site_fract_z
  _atom_site_occupancy
  Ti  Ti1       1.0  0.62253  0.37747  0.00000  1.0000
  Ti  Ti2       1.0  0.37747  0.62253  0.00000  1.0000
  Ti  Ti3       1.0  0.12253  0.87747  0.50000  1.0000
  Ti  Ti4       1.0  0.87747  0.12253  0.50000  1.0000
  Hg  Hg1       1.0  0.74471  0.74471  0.24386  1.0000
  Hg  Hg2       1.0  0.24471  0.24471  0.25614  1.0000
  Hg  Hg3       1.0  0.75529  0.75529  0.74386  1.0000
  Hg  Hg4       1.0  0.37161  0.62839  0.50000  1.0000
  Hg  Hg5       1.0  0.00001  0.50001  0.75000  1.0000
  Hg  Hg6       1.0  0.87161  0.12839  0.00000  1.0000
  Hg  Hg7       1.0  0.99999  0.49999  0.25000  1.0000
  Hg  Hg8       1.0  0.25529  0.25529  0.75614  1.0000
  Hg  Hg9       1.0  0.62839  0.37161  0.50000  1.0000
  Hg  Hg10      1.0  0.12839  0.87161  0.00000  1.0000
  Hg  Hg11      1.0  0.49999  0.99999  0.25000  1.0000
  Hg  Hg12      1.0  0.50001  0.00001  0.75000  1.0000
