data_image0
_chemical_formula_structural       V8F16
_chemical_formula_sum              "V8 F16"
_cell_length_a       6.10365
_cell_length_b       5.44963
_cell_length_c       10.3839
_cell_angle_alpha    90
_cell_angle_beta     90
_cell_angle_gamma    90

_space_group_name_H-M_alt    "P 1"
_space_group_IT_number       1

loop_
  _space_group_symop_operation_xyz
  'x, y, z'

loop_
  _atom_site_type_symbol
  _atom_site_label
  _atom_site_symmetry_multiplicity
  _atom_site_fract_x
  _atom_site_fract_y
  _atom_site_fract_z
  _atom_site_occupancy
  V   V1        1.0  0.70399  0.00773  0.06913  1.0000
  V   V2        1.0  0.79601  0.49227  0.56913  1.0000
  V   V3        1.0  0.79601  0.50773  0.93087  1.0000
  V   V4        1.0  0.70399  0.99227  0.43087  1.0000
  V   V5        1.0  0.29601  0.99227  0.93087  1.0000
  V   V6        1.0  0.20399  0.50773  0.43087  1.0000
  V   V7        1.0  0.20399  0.49227  0.06913  1.0000
  V   V8        1.0  0.29601  0.00773  0.56913  1.0000
  F   F1        1.0  0.29352  0.50000  0.25000  1.0000
  F   F2        1.0  0.20648  0.00000  0.75000  1.0000
  F   F3        1.0  0.70648  0.50000  0.75000  1.0000
  F   F4        1.0  0.79352  0.00000  0.25000  1.0000
  F   F5        1.0  0.38827  0.98758  0.38382  1.0000
  F   F6        1.0  0.11173  0.51242  0.88382  1.0000
  F   F7        1.0  0.11173  0.48758  0.61618  1.0000
  F   F8        1.0  0.38827  0.01242  0.11618  1.0000
  F   F9        1.0  0.61173  0.01242  0.61618  1.0000
  F   F10       1.0  0.88827  0.48758  0.11618  1.0000
  F   F11       1.0  0.88827  0.51242  0.38382  1.0000
  F   F12       1.0  0.61173  0.98758  0.88382  1.0000
  F   F13       1.0  0.50000  0.50000  0.00000  1.0000
  F   F14       1.0  0.00000  0.00000  0.50000  1.0000
  F   F15       1.0  0.00000  0.00000  0.00000  1.0000
  F   F16       1.0  0.50000  0.50000  0.50000  1.0000
