data_image0
_chemical_formula_structural       VSe4
_chemical_formula_sum              "V1 Se4"
_cell_length_a       6.2492
_cell_length_b       6.2492
_cell_length_c       6.2492
_cell_angle_alpha    93.9361
_cell_angle_beta     93.9361
_cell_angle_gamma    149.622

_space_group_name_H-M_alt    "P 1"
_space_group_IT_number       1

loop_
  _space_group_symop_operation_xyz
  'x, y, z'

loop_
  _atom_site_type_symbol
  _atom_site_label
  _atom_site_symmetry_multiplicity
  _atom_site_fract_x
  _atom_site_fract_y
  _atom_site_fract_z
  _atom_site_occupancy
  V   V1        1.0  0.00000  0.00000  0.00000  1.0000
  Se  Se1       1.0  0.59800  0.71189  0.30989  1.0000
  Se  Se2       1.0  0.40200  0.28811  0.69011  1.0000
  Se  Se3       1.0  0.28811  0.59800  0.88611  1.0000
  Se  Se4       1.0  0.71189  0.40200  0.11389  1.0000
