data_image0
_chemical_formula_structural       S9V13
_chemical_formula_sum              "S9 V13"
_cell_length_a       8.4191
_cell_length_b       8.4191
_cell_length_c       4.69732
_cell_angle_alpha    90
_cell_angle_beta     90
_cell_angle_gamma    120

_space_group_name_H-M_alt    "P 1"
_space_group_IT_number       1

loop_
  _space_group_symop_operation_xyz
  'x, y, z'

loop_
  _atom_site_type_symbol
  _atom_site_label
  _atom_site_symmetry_multiplicity
  _atom_site_fract_x
  _atom_site_fract_y
  _atom_site_fract_z
  _atom_site_occupancy
  S   S1        1.0  0.00000  0.00000  0.50000  1.0000
  S   S2        1.0  0.33333  0.66667  0.74063  1.0000
  S   S3        1.0  0.66667  0.33333  0.25937  1.0000
  S   S4        1.0  0.19345  0.80655  0.23782  1.0000
  S   S5        1.0  0.19345  0.38691  0.23782  1.0000
  S   S6        1.0  0.61309  0.80655  0.23782  1.0000
  S   S7        1.0  0.38691  0.19345  0.76218  1.0000
  S   S8        1.0  0.80655  0.61309  0.76218  1.0000
  S   S9        1.0  0.80655  0.19345  0.76218  1.0000
  V   V1        1.0  0.00000  0.00000  0.00000  1.0000
  V   V2        1.0  0.50000  0.00000  0.00000  1.0000
  V   V3        1.0  0.00000  0.50000  0.00000  1.0000
  V   V4        1.0  0.50000  0.50000  0.00000  1.0000
  V   V5        1.0  0.50000  0.00000  0.50000  1.0000
  V   V6        1.0  0.00000  0.50000  0.50000  1.0000
  V   V7        1.0  0.50000  0.50000  0.50000  1.0000
  V   V8        1.0  0.15164  0.84836  0.73480  1.0000
  V   V9        1.0  0.15164  0.30328  0.73480  1.0000
  V   V10       1.0  0.69672  0.84836  0.73480  1.0000
  V   V11       1.0  0.30328  0.15164  0.26520  1.0000
  V   V12       1.0  0.84836  0.69672  0.26520  1.0000
  V   V13       1.0  0.84836  0.15164  0.26520  1.0000
