data_image0
_chemical_formula_structural       V4I12
_chemical_formula_sum              "V4 I12"
_cell_length_a       8.46056
_cell_length_b       8.46056
_cell_length_c       10.6416
_cell_angle_alpha    90
_cell_angle_beta     90
_cell_angle_gamma    95.1881

_space_group_name_H-M_alt    "P 1"
_space_group_IT_number       1

loop_
  _space_group_symop_operation_xyz
  'x, y, z'

loop_
  _atom_site_type_symbol
  _atom_site_label
  _atom_site_symmetry_multiplicity
  _atom_site_fract_x
  _atom_site_fract_y
  _atom_site_fract_z
  _atom_site_occupancy
  V   V1        1.0  0.65790  0.34210  0.00000  1.0000
  V   V2        1.0  0.34210  0.65790  0.00000  1.0000
  V   V3        1.0  0.15790  0.84210  0.50000  1.0000
  V   V4        1.0  0.84210  0.15790  0.50000  1.0000
  I   I1        1.0  0.65348  0.65348  0.07388  1.0000
  I   I2        1.0  0.15348  0.15348  0.42612  1.0000
  I   I3        1.0  0.84652  0.84652  0.57388  1.0000
  I   I4        1.0  0.36673  0.63327  0.50000  1.0000
  I   I5        1.0  0.85464  0.35464  0.75000  1.0000
  I   I6        1.0  0.86673  0.13327  0.00000  1.0000
  I   I7        1.0  0.14536  0.64536  0.25000  1.0000
  I   I8        1.0  0.34652  0.34652  0.92612  1.0000
  I   I9        1.0  0.63327  0.36673  0.50000  1.0000
  I   I10       1.0  0.13327  0.86673  0.00000  1.0000
  I   I11       1.0  0.64536  0.14536  0.25000  1.0000
  I   I12       1.0  0.35464  0.85464  0.75000  1.0000
