data_image0
_chemical_formula_structural       Se10Ti6
_chemical_formula_sum              "Se10 Ti6"
_cell_length_a       7.98212
_cell_length_b       7.98212
_cell_length_c       7.98212
_cell_angle_alpha    129.127
_cell_angle_beta     129.127
_cell_angle_gamma    74.8061

_space_group_name_H-M_alt    "P 1"
_space_group_IT_number       1

loop_
  _space_group_symop_operation_xyz
  'x, y, z'

loop_
  _atom_site_type_symbol
  _atom_site_label
  _atom_site_symmetry_multiplicity
  _atom_site_fract_x
  _atom_site_fract_y
  _atom_site_fract_z
  _atom_site_occupancy
  Se  Se1       1.0  0.52498  0.68199  0.50000  1.0000
  Se  Se2       1.0  0.47502  0.31801  0.50000  1.0000
  Se  Se3       1.0  0.50000  0.50000  0.00000  1.0000
  Se  Se4       1.0  0.00000  0.00000  0.00000  1.0000
  Se  Se5       1.0  0.18199  0.02498  0.50000  1.0000
  Se  Se6       1.0  0.02498  0.52498  0.84298  1.0000
  Se  Se7       1.0  0.68199  0.18199  0.15702  1.0000
  Se  Se8       1.0  0.31801  0.81801  0.84298  1.0000
  Se  Se9       1.0  0.97502  0.47502  0.15702  1.0000
  Se  Se10      1.0  0.81801  0.97502  0.50000  1.0000
  Ti  Ti1       1.0  0.85888  0.64112  0.50000  1.0000
  Ti  Ti2       1.0  0.64112  0.14112  0.78225  1.0000
  Ti  Ti3       1.0  0.35888  0.85888  0.21775  1.0000
  Ti  Ti4       1.0  0.14112  0.35888  0.50000  1.0000
  Ti  Ti5       1.0  0.25000  0.25000  0.00000  1.0000
  Ti  Ti6       1.0  0.75000  0.75000  0.00000  1.0000
