data_image0
_chemical_formula_structural       TiHg4
_chemical_formula_sum              "Ti1 Hg4"
_cell_length_a       5.54588
_cell_length_b       5.54588
_cell_length_c       5.54588
_cell_angle_alpha    98.7204
_cell_angle_beta     98.7204
_cell_angle_gamma    134.169

_space_group_name_H-M_alt    "P 1"
_space_group_IT_number       1

loop_
  _space_group_symop_operation_xyz
  'x, y, z'

loop_
  _atom_site_type_symbol
  _atom_site_label
  _atom_site_symmetry_multiplicity
  _atom_site_fract_x
  _atom_site_fract_y
  _atom_site_fract_z
  _atom_site_occupancy
  Ti  Ti1       1.0  0.00000  0.00000  0.00000  1.0000
  Hg  Hg1       1.0  0.60309  0.79219  0.39528  1.0000
  Hg  Hg2       1.0  0.39691  0.20781  0.60472  1.0000
  Hg  Hg3       1.0  0.20781  0.60309  0.81090  1.0000
  Hg  Hg4       1.0  0.79219  0.39691  0.18910  1.0000
