data_image0
_chemical_formula_structural       I9Y13
_chemical_formula_sum              "I9 Y13"
_cell_length_a       11.0105
_cell_length_b       11.0105
_cell_length_c       6.42083
_cell_angle_alpha    90
_cell_angle_beta     90
_cell_angle_gamma    120

_space_group_name_H-M_alt    "P 1"
_space_group_IT_number       1

loop_
  _space_group_symop_operation_xyz
  'x, y, z'

loop_
  _atom_site_type_symbol
  _atom_site_label
  _atom_site_symmetry_multiplicity
  _atom_site_fract_x
  _atom_site_fract_y
  _atom_site_fract_z
  _atom_site_occupancy
  I   I1        1.0  0.00000  0.00000  0.50000  1.0000
  I   I2        1.0  0.33333  0.66667  0.79372  1.0000
  I   I3        1.0  0.66667  0.33333  0.20628  1.0000
  I   I4        1.0  0.20307  0.79693  0.27658  1.0000
  I   I5        1.0  0.20307  0.40613  0.27658  1.0000
  I   I6        1.0  0.59387  0.79693  0.27658  1.0000
  I   I7        1.0  0.40613  0.20307  0.72342  1.0000
  I   I8        1.0  0.79693  0.59387  0.72342  1.0000
  I   I9        1.0  0.79693  0.20307  0.72342  1.0000
  Y   Y1        1.0  0.00000  0.00000  0.00000  1.0000
  Y   Y2        1.0  0.50000  0.00000  0.00000  1.0000
  Y   Y3        1.0  0.00000  0.50000  0.00000  1.0000
  Y   Y4        1.0  0.50000  0.50000  0.00000  1.0000
  Y   Y5        1.0  0.50000  0.00000  0.50000  1.0000
  Y   Y6        1.0  0.00000  0.50000  0.50000  1.0000
  Y   Y7        1.0  0.50000  0.50000  0.50000  1.0000
  Y   Y8        1.0  0.15774  0.84226  0.77183  1.0000
  Y   Y9        1.0  0.15774  0.31548  0.77183  1.0000
  Y   Y10       1.0  0.68452  0.84226  0.77183  1.0000
  Y   Y11       1.0  0.31548  0.15774  0.22817  1.0000
  Y   Y12       1.0  0.84226  0.68452  0.22817  1.0000
  Y   Y13       1.0  0.84226  0.15774  0.22817  1.0000
