data_image0
_chemical_formula_structural       YSe4
_chemical_formula_sum              "Y1 Se4"
_cell_length_a       5.57312
_cell_length_b       5.57312
_cell_length_c       5.57312
_cell_angle_alpha    98.6825
_cell_angle_beta     98.6825
_cell_angle_gamma    134.273

_space_group_name_H-M_alt    "P 1"
_space_group_IT_number       1

loop_
  _space_group_symop_operation_xyz
  'x, y, z'

loop_
  _atom_site_type_symbol
  _atom_site_label
  _atom_site_symmetry_multiplicity
  _atom_site_fract_x
  _atom_site_fract_y
  _atom_site_fract_z
  _atom_site_occupancy
  Y   Y1        1.0  0.00000  0.00000  0.00000  1.0000
  Se  Se1       1.0  0.64610  0.81487  0.46096  1.0000
  Se  Se2       1.0  0.35390  0.18513  0.53904  1.0000
  Se  Se3       1.0  0.18513  0.64610  0.83123  1.0000
  Se  Se4       1.0  0.81487  0.35390  0.16877  1.0000
