data_image0
_chemical_formula_structural       Ag9Zn13
_chemical_formula_sum              "Ag9 Zn13"
_cell_length_a       8.808
_cell_length_b       8.808
_cell_length_c       5.40302
_cell_angle_alpha    90
_cell_angle_beta     90
_cell_angle_gamma    120

_space_group_name_H-M_alt    "P 1"
_space_group_IT_number       1

loop_
  _space_group_symop_operation_xyz
  'x, y, z'

loop_
  _atom_site_type_symbol
  _atom_site_label
  _atom_site_symmetry_multiplicity
  _atom_site_fract_x
  _atom_site_fract_y
  _atom_site_fract_z
  _atom_site_occupancy
  Ag  Ag1       1.0  0.00000  0.00000  0.50000  1.0000
  Ag  Ag2       1.0  0.33333  0.66667  0.74650  1.0000
  Ag  Ag3       1.0  0.66667  0.33333  0.25350  1.0000
  Ag  Ag4       1.0  0.19943  0.80057  0.25133  1.0000
  Ag  Ag5       1.0  0.19943  0.39885  0.25133  1.0000
  Ag  Ag6       1.0  0.60115  0.80057  0.25133  1.0000
  Ag  Ag7       1.0  0.39885  0.19943  0.74867  1.0000
  Ag  Ag8       1.0  0.80057  0.60115  0.74867  1.0000
  Ag  Ag9       1.0  0.80057  0.19943  0.74867  1.0000
  Zn  Zn1       1.0  0.00000  0.00000  0.00000  1.0000
  Zn  Zn2       1.0  0.50000  0.00000  0.00000  1.0000
  Zn  Zn3       1.0  0.00000  0.50000  0.00000  1.0000
  Zn  Zn4       1.0  0.50000  0.50000  0.00000  1.0000
  Zn  Zn5       1.0  0.50000  0.00000  0.50000  1.0000
  Zn  Zn6       1.0  0.00000  0.50000  0.50000  1.0000
  Zn  Zn7       1.0  0.50000  0.50000  0.50000  1.0000
  Zn  Zn8       1.0  0.15658  0.84342  0.75449  1.0000
  Zn  Zn9       1.0  0.15658  0.31317  0.75449  1.0000
  Zn  Zn10      1.0  0.68683  0.84342  0.75449  1.0000
  Zn  Zn11      1.0  0.31317  0.15658  0.24551  1.0000
  Zn  Zn12      1.0  0.84342  0.68683  0.24551  1.0000
  Zn  Zn13      1.0  0.84342  0.15658  0.24551  1.0000
