data_image0
_chemical_formula_structural       Se14Y7
_chemical_formula_sum              "Se14 Y7"
_cell_length_a       5.0916
_cell_length_b       4.1126
_cell_length_c       29.6937
_cell_angle_alpha    102.012
_cell_angle_beta     85.7149
_cell_angle_gamma    107.773

_space_group_name_H-M_alt    "P 1"
_space_group_IT_number       1

loop_
  _space_group_symop_operation_xyz
  'x, y, z'

loop_
  _atom_site_type_symbol
  _atom_site_label
  _atom_site_symmetry_multiplicity
  _atom_site_fract_x
  _atom_site_fract_y
  _atom_site_fract_z
  _atom_site_occupancy
  Se  Se1       1.0  0.53624  0.22767  0.81548  1.0000
  Se  Se2       1.0  0.99590  0.13786  0.90188  1.0000
  Se  Se3       1.0  0.07995  0.48558  0.73793  1.0000
  Se  Se4       1.0  0.19890  0.85921  0.63198  1.0000
  Se  Se5       1.0  0.69459  0.06155  0.62260  1.0000
  Se  Se6       1.0  0.26645  0.17333  0.52843  1.0000
  Se  Se7       1.0  0.81122  0.44754  0.45176  1.0000
  Se  Se8       1.0  0.87095  0.64309  0.27800  1.0000
  Se  Se9       1.0  0.35973  0.54784  0.36408  1.0000
  Se  Se10      1.0  0.97897  0.99323  0.09908  1.0000
  Se  Se11      1.0  0.27984  0.29596  0.22314  1.0000
  Se  Se12      1.0  0.58517  0.96596  0.15767  1.0000
  Se  Se13      1.0  0.33309  0.63931  0.03382  1.0000
  Se  Se14      1.0  0.59560  0.33886  0.97096  1.0000
  Y   Y1        1.0  0.00972  0.98140  0.99146  1.0000
  Y   Y2        1.0  0.12628  0.59311  0.83787  1.0000
  Y   Y3        1.0  0.46289  0.10830  0.71909  1.0000
  Y   Y4        1.0  0.86862  0.53851  0.54895  1.0000
  Y   Y5        1.0  0.21696  0.08210  0.43076  1.0000
  Y   Y6        1.0  0.45191  0.98727  0.29300  1.0000
  Y   Y7        1.0  0.98446  0.61918  0.17232  1.0000
