data_image0
_chemical_formula_structural       Se8Y12
_chemical_formula_sum              "Se8 Y12"
_cell_length_a       6.81001
_cell_length_b       6.81001
_cell_length_c       14.121
_cell_angle_alpha    90
_cell_angle_beta     90
_cell_angle_gamma    120

_space_group_name_H-M_alt    "P 1"
_space_group_IT_number       1

loop_
  _space_group_symop_operation_xyz
  'x, y, z'

loop_
  _atom_site_type_symbol
  _atom_site_label
  _atom_site_symmetry_multiplicity
  _atom_site_fract_x
  _atom_site_fract_y
  _atom_site_fract_z
  _atom_site_occupancy
  Se  Se1       1.0  0.00000  0.00000  0.25000  1.0000
  Se  Se2       1.0  0.00000  0.00000  0.75000  1.0000
  Se  Se3       1.0  0.33333  0.66667  0.25000  1.0000
  Se  Se4       1.0  0.66667  0.33333  0.75000  1.0000
  Se  Se5       1.0  0.33333  0.66667  0.56438  1.0000
  Se  Se6       1.0  0.66667  0.33333  0.06438  1.0000
  Se  Se7       1.0  0.66667  0.33333  0.43562  1.0000
  Se  Se8       1.0  0.33333  0.66667  0.93562  1.0000
  Y   Y1        1.0  0.16841  0.33682  0.40150  1.0000
  Y   Y2        1.0  0.16841  0.83159  0.40150  1.0000
  Y   Y3        1.0  0.66318  0.83159  0.40150  1.0000
  Y   Y4        1.0  0.83159  0.16841  0.90150  1.0000
  Y   Y5        1.0  0.33682  0.16841  0.90150  1.0000
  Y   Y6        1.0  0.83159  0.66318  0.90150  1.0000
  Y   Y7        1.0  0.83159  0.66318  0.59850  1.0000
  Y   Y8        1.0  0.83159  0.16841  0.59850  1.0000
  Y   Y9        1.0  0.33682  0.16841  0.59850  1.0000
  Y   Y10       1.0  0.16841  0.83159  0.09850  1.0000
  Y   Y11       1.0  0.66318  0.83159  0.09850  1.0000
  Y   Y12       1.0  0.16841  0.33682  0.09850  1.0000
