data_image0
_chemical_formula_structural       S9Y13
_chemical_formula_sum              "S9 Y13"
_cell_length_a       7.53238
_cell_length_b       7.53238
_cell_length_c       11.8927
_cell_angle_alpha    90
_cell_angle_beta     90
_cell_angle_gamma    120

_space_group_name_H-M_alt    "P 1"
_space_group_IT_number       1

loop_
  _space_group_symop_operation_xyz
  'x, y, z'

loop_
  _atom_site_type_symbol
  _atom_site_label
  _atom_site_symmetry_multiplicity
  _atom_site_fract_x
  _atom_site_fract_y
  _atom_site_fract_z
  _atom_site_occupancy
  S   S1        1.0  0.00000  0.00000  0.50000  1.0000
  S   S2        1.0  0.33333  0.66667  0.85770  1.0000
  S   S3        1.0  0.66667  0.33333  0.14230  1.0000
  S   S4        1.0  0.16938  0.83062  0.13977  1.0000
  S   S5        1.0  0.16938  0.33876  0.13977  1.0000
  S   S6        1.0  0.66124  0.83062  0.13977  1.0000
  S   S7        1.0  0.33876  0.16938  0.86023  1.0000
  S   S8        1.0  0.83062  0.66124  0.86023  1.0000
  S   S9        1.0  0.83062  0.16938  0.86023  1.0000
  Y   Y1        1.0  0.00000  0.00000  0.00000  1.0000
  Y   Y2        1.0  0.50000  0.00000  0.00000  1.0000
  Y   Y3        1.0  0.00000  0.50000  0.00000  1.0000
  Y   Y4        1.0  0.50000  0.50000  0.00000  1.0000
  Y   Y5        1.0  0.50000  0.00000  0.50000  1.0000
  Y   Y6        1.0  0.00000  0.50000  0.50000  1.0000
  Y   Y7        1.0  0.50000  0.50000  0.50000  1.0000
  Y   Y8        1.0  0.16034  0.83966  0.72383  1.0000
  Y   Y9        1.0  0.16034  0.32067  0.72383  1.0000
  Y   Y10       1.0  0.67933  0.83966  0.72383  1.0000
  Y   Y11       1.0  0.32067  0.16034  0.27617  1.0000
  Y   Y12       1.0  0.83966  0.67933  0.27617  1.0000
  Y   Y13       1.0  0.83966  0.16034  0.27617  1.0000
