data_image0
_chemical_formula_structural       Y2I4
_chemical_formula_sum              "Y2 I4"
_cell_length_a       3.97782
_cell_length_b       7.38172
_cell_length_c       7.86656
_cell_angle_alpha    90
_cell_angle_beta     90
_cell_angle_gamma    90

_space_group_name_H-M_alt    "P 1"
_space_group_IT_number       1

loop_
  _space_group_symop_operation_xyz
  'x, y, z'

loop_
  _atom_site_type_symbol
  _atom_site_label
  _atom_site_symmetry_multiplicity
  _atom_site_fract_x
  _atom_site_fract_y
  _atom_site_fract_z
  _atom_site_occupancy
  Y   Y1        1.0  0.50000  0.50000  0.50000  1.0000
  Y   Y2        1.0  0.00000  0.00000  0.00000  1.0000
  I   I1        1.0  0.50000  0.26664  0.83371  1.0000
  I   I2        1.0  0.50000  0.73336  0.16629  1.0000
  I   I3        1.0  0.00000  0.23336  0.33371  1.0000
  I   I4        1.0  0.00000  0.76664  0.66629  1.0000
