data_image0
_chemical_formula_structural       ZnAu4
_chemical_formula_sum              "Zn1 Au4"
_cell_length_a       5.0664
_cell_length_b       5.0664
_cell_length_c       5.0664
_cell_angle_alpha    99.2924
_cell_angle_beta     99.2924
_cell_angle_gamma    132.614

_space_group_name_H-M_alt    "P 1"
_space_group_IT_number       1

loop_
  _space_group_symop_operation_xyz
  'x, y, z'

loop_
  _atom_site_type_symbol
  _atom_site_label
  _atom_site_symmetry_multiplicity
  _atom_site_fract_x
  _atom_site_fract_y
  _atom_site_fract_z
  _atom_site_occupancy
  Zn  Zn1       1.0  0.00000  0.00000  0.00000  1.0000
  Au  Au1       1.0  0.60218  0.79565  0.39784  1.0000
  Au  Au2       1.0  0.39782  0.20435  0.60216  1.0000
  Au  Au3       1.0  0.20435  0.60218  0.80653  1.0000
  Au  Au4       1.0  0.79565  0.39782  0.19347  1.0000
