data_image0
_chemical_formula_structural       YN
_chemical_formula_sum              "Y1 N1"
_cell_length_a       3.47825
_cell_length_b       3.47825
_cell_length_c       3.47825
_cell_angle_alpha    59.9675
_cell_angle_beta     59.9675
_cell_angle_gamma    59.9676

_space_group_name_H-M_alt    "P 1"
_space_group_IT_number       1

loop_
  _space_group_symop_operation_xyz
  'x, y, z'

loop_
  _atom_site_type_symbol
  _atom_site_label
  _atom_site_symmetry_multiplicity
  _atom_site_fract_x
  _atom_site_fract_y
  _atom_site_fract_z
  _atom_site_occupancy
  Y   Y1        1.0  0.50000  0.50000  0.50000  1.0000
  N   N1        1.0  0.00000  0.00000  0.00000  1.0000
