data_image0
_chemical_formula_structural       Y4I8
_chemical_formula_sum              "Y4 I8"
_cell_length_a       4.15527
_cell_length_b       7.16117
_cell_length_c       16.0966
_cell_angle_alpha    90
_cell_angle_beta     90
_cell_angle_gamma    90

_space_group_name_H-M_alt    "P 1"
_space_group_IT_number       1

loop_
  _space_group_symop_operation_xyz
  'x, y, z'

loop_
  _atom_site_type_symbol
  _atom_site_label
  _atom_site_symmetry_multiplicity
  _atom_site_fract_x
  _atom_site_fract_y
  _atom_site_fract_z
  _atom_site_occupancy
  Y   Y1        1.0  0.50000  0.00000  0.50000  1.0000
  Y   Y2        1.0  0.00000  0.50000  0.50000  1.0000
  Y   Y3        1.0  0.50000  0.50000  0.00000  1.0000
  Y   Y4        1.0  0.00000  0.00000  0.00000  1.0000
  I   I1        1.0  0.49983  0.16582  0.12191  1.0000
  I   I2        1.0  0.99983  0.33418  0.87809  1.0000
  I   I3        1.0  0.50017  0.66582  0.37809  1.0000
  I   I4        1.0  0.00017  0.83418  0.62191  1.0000
  I   I5        1.0  0.99983  0.16582  0.37809  1.0000
  I   I6        1.0  0.49983  0.33418  0.62191  1.0000
  I   I7        1.0  0.00017  0.66582  0.12191  1.0000
  I   I8        1.0  0.50017  0.83418  0.87809  1.0000
