data_image0
_chemical_formula_structural       Y6I4
_chemical_formula_sum              "Y6 I4"
_cell_length_a       8.72605
_cell_length_b       8.72605
_cell_length_c       3.78004
_cell_angle_alpha    90
_cell_angle_beta     90
_cell_angle_gamma    90

_space_group_name_H-M_alt    "P 1"
_space_group_IT_number       1

loop_
  _space_group_symop_operation_xyz
  'x, y, z'

loop_
  _atom_site_type_symbol
  _atom_site_label
  _atom_site_symmetry_multiplicity
  _atom_site_fract_x
  _atom_site_fract_y
  _atom_site_fract_z
  _atom_site_occupancy
  Y   Y1        1.0  0.00000  0.00000  0.00000  1.0000
  Y   Y2        1.0  0.50000  0.50000  0.00000  1.0000
  Y   Y3        1.0  0.15976  0.65976  0.50061  1.0000
  Y   Y4        1.0  0.34024  0.15976  0.49939  1.0000
  Y   Y5        1.0  0.65976  0.84024  0.49939  1.0000
  Y   Y6        1.0  0.84024  0.34024  0.50061  1.0000
  I   I1        1.0  0.35737  0.85737  0.00066  1.0000
  I   I2        1.0  0.14263  0.35737  0.99934  1.0000
  I   I3        1.0  0.85737  0.64263  0.99934  1.0000
  I   I4        1.0  0.64263  0.14263  0.00066  1.0000
