data_image0
_chemical_formula_structural       Se6V2
_chemical_formula_sum              "Se6 V2"
_cell_length_a       9.22191
_cell_length_b       9.22191
_cell_length_c       3.02178
_cell_angle_alpha    90
_cell_angle_beta     90
_cell_angle_gamma    119.979

_space_group_name_H-M_alt    "P 1"
_space_group_IT_number       1

loop_
  _space_group_symop_operation_xyz
  'x, y, z'

loop_
  _atom_site_type_symbol
  _atom_site_label
  _atom_site_symmetry_multiplicity
  _atom_site_fract_x
  _atom_site_fract_y
  _atom_site_fract_z
  _atom_site_occupancy
  Se  Se1       1.0  0.21321  0.42643  0.25000  1.0000
  Se  Se2       1.0  0.57357  0.78679  0.25000  1.0000
  Se  Se3       1.0  0.21317  0.78683  0.25000  1.0000
  Se  Se4       1.0  0.78679  0.57357  0.75000  1.0000
  Se  Se5       1.0  0.42643  0.21321  0.75000  1.0000
  Se  Se6       1.0  0.78684  0.21316  0.75000  1.0000
  V   V1        1.0  0.33325  0.66675  0.75000  1.0000
  V   V2        1.0  0.66675  0.33325  0.25000  1.0000
