data_image0
_chemical_formula_structural       Zn8Au16
_chemical_formula_sum              "Zn8 Au16"
_cell_length_a       4.92671
_cell_length_b       7.59909
_cell_length_c       11.1486
_cell_angle_alpha    90
_cell_angle_beta     90
_cell_angle_gamma    90

_space_group_name_H-M_alt    "P 1"
_space_group_IT_number       1

loop_
  _space_group_symop_operation_xyz
  'x, y, z'

loop_
  _atom_site_type_symbol
  _atom_site_label
  _atom_site_symmetry_multiplicity
  _atom_site_fract_x
  _atom_site_fract_y
  _atom_site_fract_z
  _atom_site_occupancy
  Zn  Zn1       1.0  0.57133  0.81699  0.11061  1.0000
  Zn  Zn2       1.0  0.92867  0.68301  0.61061  1.0000
  Zn  Zn3       1.0  0.92867  0.31699  0.88939  1.0000
  Zn  Zn4       1.0  0.57133  0.18301  0.38939  1.0000
  Zn  Zn5       1.0  0.42867  0.18301  0.88939  1.0000
  Zn  Zn6       1.0  0.07133  0.31699  0.38939  1.0000
  Zn  Zn7       1.0  0.07133  0.68301  0.11061  1.0000
  Zn  Zn8       1.0  0.42867  0.81699  0.61061  1.0000
  Au  Au1       1.0  0.44052  0.50000  0.25000  1.0000
  Au  Au2       1.0  0.05948  0.00000  0.75000  1.0000
  Au  Au3       1.0  0.55948  0.50000  0.75000  1.0000
  Au  Au4       1.0  0.94052  0.00000  0.25000  1.0000
  Au  Au5       1.0  0.43421  0.85105  0.35965  1.0000
  Au  Au6       1.0  0.06579  0.64895  0.85965  1.0000
  Au  Au7       1.0  0.06579  0.35105  0.64035  1.0000
  Au  Au8       1.0  0.43421  0.14895  0.14035  1.0000
  Au  Au9       1.0  0.56579  0.14895  0.64035  1.0000
  Au  Au10      1.0  0.93421  0.35105  0.14035  1.0000
  Au  Au11      1.0  0.93421  0.64895  0.35965  1.0000
  Au  Au12      1.0  0.56579  0.85105  0.85965  1.0000
  Au  Au13      1.0  0.50000  0.50000  0.00000  1.0000
  Au  Au14      1.0  0.00000  0.00000  0.50000  1.0000
  Au  Au15      1.0  0.00000  0.00000  0.00000  1.0000
  Au  Au16      1.0  0.50000  0.50000  0.50000  1.0000
