data_image0
_chemical_formula_structural       I8Y12
_chemical_formula_sum              "I8 Y12"
_cell_length_a       6.92376
_cell_length_b       6.92376
_cell_length_c       16.1214
_cell_angle_alpha    90
_cell_angle_beta     90
_cell_angle_gamma    120

_space_group_name_H-M_alt    "P 1"
_space_group_IT_number       1

loop_
  _space_group_symop_operation_xyz
  'x, y, z'

loop_
  _atom_site_type_symbol
  _atom_site_label
  _atom_site_symmetry_multiplicity
  _atom_site_fract_x
  _atom_site_fract_y
  _atom_site_fract_z
  _atom_site_occupancy
  I   I1        1.0  0.00000  0.00000  0.25000  1.0000
  I   I2        1.0  0.00000  0.00000  0.75000  1.0000
  I   I3        1.0  0.33333  0.66667  0.25000  1.0000
  I   I4        1.0  0.66667  0.33333  0.75000  1.0000
  I   I5        1.0  0.33333  0.66667  0.58864  1.0000
  I   I6        1.0  0.66667  0.33333  0.08864  1.0000
  I   I7        1.0  0.66667  0.33333  0.41136  1.0000
  I   I8        1.0  0.33333  0.66667  0.91136  1.0000
  Y   Y1        1.0  0.16963  0.33926  0.41566  1.0000
  Y   Y2        1.0  0.16963  0.83037  0.41566  1.0000
  Y   Y3        1.0  0.66074  0.83037  0.41566  1.0000
  Y   Y4        1.0  0.83037  0.16963  0.91566  1.0000
  Y   Y5        1.0  0.33926  0.16963  0.91566  1.0000
  Y   Y6        1.0  0.83037  0.66074  0.91566  1.0000
  Y   Y7        1.0  0.83037  0.66074  0.58434  1.0000
  Y   Y8        1.0  0.83037  0.16963  0.58434  1.0000
  Y   Y9        1.0  0.33926  0.16963  0.58434  1.0000
  Y   Y10       1.0  0.16963  0.83037  0.08434  1.0000
  Y   Y11       1.0  0.66074  0.83037  0.08434  1.0000
  Y   Y12       1.0  0.16963  0.33926  0.08434  1.0000
