data_image0
_chemical_formula_structural       Au4Zn4
_chemical_formula_sum              "Au4 Zn4"
_cell_length_a       4.4887
_cell_length_b       5.11349
_cell_length_c       5.71374
_cell_angle_alpha    90
_cell_angle_beta     90
_cell_angle_gamma    90

_space_group_name_H-M_alt    "P 1"
_space_group_IT_number       1

loop_
  _space_group_symop_operation_xyz
  'x, y, z'

loop_
  _atom_site_type_symbol
  _atom_site_label
  _atom_site_symmetry_multiplicity
  _atom_site_fract_x
  _atom_site_fract_y
  _atom_site_fract_z
  _atom_site_occupancy
  Au  Au1       1.0  0.25000  0.61884  0.12724  1.0000
  Au  Au2       1.0  0.75000  0.38116  0.87276  1.0000
  Au  Au3       1.0  0.25000  0.11884  0.37276  1.0000
  Au  Au4       1.0  0.75000  0.88116  0.62724  1.0000
  Zn  Zn1       1.0  0.25000  0.57880  0.62716  1.0000
  Zn  Zn2       1.0  0.75000  0.42120  0.37284  1.0000
  Zn  Zn3       1.0  0.25000  0.07880  0.87284  1.0000
  Zn  Zn4       1.0  0.75000  0.92120  0.12716  1.0000
