data_image0
_chemical_formula_structural       I10Y6
_chemical_formula_sum              "I10 Y6"
_cell_length_a       9.34514
_cell_length_b       9.34514
_cell_length_c       9.34514
_cell_angle_alpha    126.116
_cell_angle_beta     126.116
_cell_angle_gamma    79.6968

_space_group_name_H-M_alt    "P 1"
_space_group_IT_number       1

loop_
  _space_group_symop_operation_xyz
  'x, y, z'

loop_
  _atom_site_type_symbol
  _atom_site_label
  _atom_site_symmetry_multiplicity
  _atom_site_fract_x
  _atom_site_fract_y
  _atom_site_fract_z
  _atom_site_occupancy
  I   I1        1.0  0.51195  0.69600  0.50000  1.0000
  I   I2        1.0  0.48805  0.30400  0.50000  1.0000
  I   I3        1.0  0.50000  0.50000  0.00000  1.0000
  I   I4        1.0  0.00000  0.00000  0.00000  1.0000
  I   I5        1.0  0.19600  0.01195  0.50000  1.0000
  I   I6        1.0  0.01195  0.51195  0.81596  1.0000
  I   I7        1.0  0.69600  0.19600  0.18404  1.0000
  I   I8        1.0  0.30400  0.80400  0.81596  1.0000
  I   I9        1.0  0.98805  0.48805  0.18404  1.0000
  I   I10       1.0  0.80400  0.98805  0.50000  1.0000
  Y   Y1        1.0  0.85785  0.64215  0.50000  1.0000
  Y   Y2        1.0  0.64215  0.14215  0.78430  1.0000
  Y   Y3        1.0  0.35785  0.85785  0.21570  1.0000
  Y   Y4        1.0  0.14215  0.35785  0.50000  1.0000
  Y   Y5        1.0  0.25000  0.25000  0.00000  1.0000
  Y   Y6        1.0  0.75000  0.75000  0.00000  1.0000
