data_image0
_chemical_formula_structural       Y4Cl8
_chemical_formula_sum              "Y4 Cl8"
_cell_length_a       5.74979
_cell_length_b       7.03205
_cell_length_c       10.6815
_cell_angle_alpha    90
_cell_angle_beta     90
_cell_angle_gamma    90

_space_group_name_H-M_alt    "P 1"
_space_group_IT_number       1

loop_
  _space_group_symop_operation_xyz
  'x, y, z'

loop_
  _atom_site_type_symbol
  _atom_site_label
  _atom_site_symmetry_multiplicity
  _atom_site_fract_x
  _atom_site_fract_y
  _atom_site_fract_z
  _atom_site_occupancy
  Y   Y1        1.0  0.50000  0.00000  0.50000  1.0000
  Y   Y2        1.0  0.00000  0.50000  0.50000  1.0000
  Y   Y3        1.0  0.50000  0.50000  0.00000  1.0000
  Y   Y4        1.0  0.00000  0.00000  0.00000  1.0000
  Cl  Cl1       1.0  0.65100  0.18498  0.11097  1.0000
  Cl  Cl2       1.0  0.15100  0.31502  0.88903  1.0000
  Cl  Cl3       1.0  0.34900  0.68498  0.38903  1.0000
  Cl  Cl4       1.0  0.84900  0.81502  0.61097  1.0000
  Cl  Cl5       1.0  0.15100  0.18498  0.38903  1.0000
  Cl  Cl6       1.0  0.65100  0.31502  0.61097  1.0000
  Cl  Cl7       1.0  0.84900  0.68498  0.11097  1.0000
  Cl  Cl8       1.0  0.34900  0.81502  0.88903  1.0000
