data_image0
_chemical_formula_structural       N6Y2
_chemical_formula_sum              "N6 Y2"
_cell_length_a       5.12903
_cell_length_b       5.12903
_cell_length_c       4.52491
_cell_angle_alpha    90
_cell_angle_beta     90
_cell_angle_gamma    120

_space_group_name_H-M_alt    "P 1"
_space_group_IT_number       1

loop_
  _space_group_symop_operation_xyz
  'x, y, z'

loop_
  _atom_site_type_symbol
  _atom_site_label
  _atom_site_symmetry_multiplicity
  _atom_site_fract_x
  _atom_site_fract_y
  _atom_site_fract_z
  _atom_site_occupancy
  N   N1        1.0  0.76436  0.23564  0.75000  1.0000
  N   N2        1.0  0.47128  0.23564  0.75000  1.0000
  N   N3        1.0  0.76436  0.52872  0.75000  1.0000
  N   N4        1.0  0.23564  0.76436  0.25000  1.0000
  N   N5        1.0  0.52872  0.76436  0.25000  1.0000
  N   N6        1.0  0.23564  0.47128  0.25000  1.0000
  Y   Y1        1.0  0.66667  0.33333  0.25000  1.0000
  Y   Y2        1.0  0.33333  0.66667  0.75000  1.0000
