data_image0
_chemical_formula_structural       Se9Y13
_chemical_formula_sum              "Se9 Y13"
_cell_length_a       9.80142
_cell_length_b       9.80142
_cell_length_c       6.54416
_cell_angle_alpha    90
_cell_angle_beta     90
_cell_angle_gamma    120

_space_group_name_H-M_alt    "P 1"
_space_group_IT_number       1

loop_
  _space_group_symop_operation_xyz
  'x, y, z'

loop_
  _atom_site_type_symbol
  _atom_site_label
  _atom_site_symmetry_multiplicity
  _atom_site_fract_x
  _atom_site_fract_y
  _atom_site_fract_z
  _atom_site_occupancy
  Se  Se1       1.0  0.00000  0.00000  0.50000  1.0000
  Se  Se2       1.0  0.33333  0.66667  0.71090  1.0000
  Se  Se3       1.0  0.66667  0.33333  0.28910  1.0000
  Se  Se4       1.0  0.18337  0.81663  0.19417  1.0000
  Se  Se5       1.0  0.18337  0.36675  0.19417  1.0000
  Se  Se6       1.0  0.63325  0.81663  0.19417  1.0000
  Se  Se7       1.0  0.36675  0.18337  0.80583  1.0000
  Se  Se8       1.0  0.81663  0.63325  0.80583  1.0000
  Se  Se9       1.0  0.81663  0.18337  0.80583  1.0000
  Y   Y1        1.0  0.00000  0.00000  0.00000  1.0000
  Y   Y2        1.0  0.50000  0.00000  0.00000  1.0000
  Y   Y3        1.0  0.00000  0.50000  0.00000  1.0000
  Y   Y4        1.0  0.50000  0.50000  0.00000  1.0000
  Y   Y5        1.0  0.50000  0.00000  0.50000  1.0000
  Y   Y6        1.0  0.00000  0.50000  0.50000  1.0000
  Y   Y7        1.0  0.50000  0.50000  0.50000  1.0000
  Y   Y8        1.0  0.15210  0.84790  0.70133  1.0000
  Y   Y9        1.0  0.15210  0.30419  0.70133  1.0000
  Y   Y10       1.0  0.69581  0.84790  0.70133  1.0000
  Y   Y11       1.0  0.30419  0.15210  0.29867  1.0000
  Y   Y12       1.0  0.84790  0.69581  0.29867  1.0000
  Y   Y13       1.0  0.84790  0.15210  0.29867  1.0000
