data_image0
_chemical_formula_structural       Y6Br6
_chemical_formula_sum              "Y6 Br6"
_cell_length_a       4.43886
_cell_length_b       4.43886
_cell_length_c       27.1543
_cell_angle_alpha    90
_cell_angle_beta     90
_cell_angle_gamma    119.662

_space_group_name_H-M_alt    "P 1"
_space_group_IT_number       1

loop_
  _space_group_symop_operation_xyz
  'x, y, z'

loop_
  _atom_site_type_symbol
  _atom_site_label
  _atom_site_symmetry_multiplicity
  _atom_site_fract_x
  _atom_site_fract_y
  _atom_site_fract_z
  _atom_site_occupancy
  Y   Y1        1.0  0.32914  0.67086  0.14163  1.0000
  Y   Y2        1.0  0.67086  0.32914  0.85837  1.0000
  Y   Y3        1.0  0.67086  0.32914  0.64163  1.0000
  Y   Y4        1.0  0.32914  0.67086  0.35837  1.0000
  Y   Y5        1.0  0.33691  0.66309  0.75000  1.0000
  Y   Y6        1.0  0.66309  0.33691  0.25000  1.0000
  Br  Br1       1.0  0.67156  0.32844  0.75000  1.0000
  Br  Br2       1.0  0.32844  0.67156  0.25000  1.0000
  Br  Br3       1.0  0.00572  0.99428  0.58206  1.0000
  Br  Br4       1.0  0.99428  0.00572  0.08206  1.0000
  Br  Br5       1.0  0.00572  0.99428  0.91794  1.0000
  Br  Br6       1.0  0.99428  0.00572  0.41794  1.0000
