data_image0
_chemical_formula_structural       Y8Hg8
_chemical_formula_sum              "Y8 Hg8"
_cell_length_a       7.41446
_cell_length_b       7.41446
_cell_length_c       8.45277
_cell_angle_alpha    90
_cell_angle_beta     90
_cell_angle_gamma    90

_space_group_name_H-M_alt    "P 1"
_space_group_IT_number       1

loop_
  _space_group_symop_operation_xyz
  'x, y, z'

loop_
  _atom_site_type_symbol
  _atom_site_label
  _atom_site_symmetry_multiplicity
  _atom_site_fract_x
  _atom_site_fract_y
  _atom_site_fract_z
  _atom_site_occupancy
  Y   Y1        1.0  0.65135  0.82813  0.00000  1.0000
  Y   Y2        1.0  0.17187  0.65135  0.50000  1.0000
  Y   Y3        1.0  0.82813  0.34865  0.50000  1.0000
  Y   Y4        1.0  0.34865  0.17187  0.00000  1.0000
  Y   Y5        1.0  0.50000  0.00000  0.50000  1.0000
  Y   Y6        1.0  0.00000  0.50000  0.00000  1.0000
  Y   Y7        1.0  0.00000  0.00000  0.75000  1.0000
  Y   Y8        1.0  0.00000  0.00000  0.25000  1.0000
  Hg  Hg1       1.0  0.26436  0.30573  0.67845  1.0000
  Hg  Hg2       1.0  0.69427  0.26436  0.17845  1.0000
  Hg  Hg3       1.0  0.30573  0.73564  0.17845  1.0000
  Hg  Hg4       1.0  0.73564  0.69427  0.67845  1.0000
  Hg  Hg5       1.0  0.73564  0.69427  0.32155  1.0000
  Hg  Hg6       1.0  0.30573  0.73564  0.82155  1.0000
  Hg  Hg7       1.0  0.69427  0.26436  0.82155  1.0000
  Hg  Hg8       1.0  0.26436  0.30573  0.32155  1.0000
