data_image0
_chemical_formula_structural       Zn5Au13
_chemical_formula_sum              "Zn5 Au13"
_cell_length_a       13.1022
_cell_length_b       13.1022
_cell_length_c       5.72713
_cell_angle_alpha    77.8141
_cell_angle_beta     77.8141
_cell_angle_gamma    18.8504

_space_group_name_H-M_alt    "P 1"
_space_group_IT_number       1

loop_
  _space_group_symop_operation_xyz
  'x, y, z'

loop_
  _atom_site_type_symbol
  _atom_site_label
  _atom_site_symmetry_multiplicity
  _atom_site_fract_x
  _atom_site_fract_y
  _atom_site_fract_z
  _atom_site_occupancy
  Zn  Zn1       1.0  0.00000  0.00000  0.00000  1.0000
  Zn  Zn2       1.0  0.10706  0.10706  0.36641  1.0000
  Zn  Zn3       1.0  0.89294  0.89294  0.63359  1.0000
  Zn  Zn4       1.0  0.32634  0.32634  0.32205  1.0000
  Zn  Zn5       1.0  0.67366  0.67366  0.67795  1.0000
  Au  Au1       1.0  0.00000  0.00000  0.50000  1.0000
  Au  Au2       1.0  0.11176  0.11176  0.87310  1.0000
  Au  Au3       1.0  0.88824  0.88824  0.12690  1.0000
  Au  Au4       1.0  0.21410  0.21410  0.40195  1.0000
  Au  Au5       1.0  0.78590  0.78590  0.59805  1.0000
  Au  Au6       1.0  0.22295  0.22295  0.88801  1.0000
  Au  Au7       1.0  0.77705  0.77705  0.11199  1.0000
  Au  Au8       1.0  0.33939  0.33939  0.82069  1.0000
  Au  Au9       1.0  0.66061  0.66061  0.17931  1.0000
  Au  Au10      1.0  0.43234  0.43234  0.36577  1.0000
  Au  Au11      1.0  0.56766  0.56766  0.63423  1.0000
  Au  Au12      1.0  0.45274  0.45274  0.84581  1.0000
  Au  Au13      1.0  0.54726  0.54726  0.15419  1.0000
