data_image0
_chemical_formula_structural       Y6Br8
_chemical_formula_sum              "Y6 Br8"
_cell_length_a       8.57311
_cell_length_b       8.57311
_cell_length_c       8.57311
_cell_angle_alpha    60
_cell_angle_beta     60
_cell_angle_gamma    60

_space_group_name_H-M_alt    "P 1"
_space_group_IT_number       1

loop_
  _space_group_symop_operation_xyz
  'x, y, z'

loop_
  _atom_site_type_symbol
  _atom_site_label
  _atom_site_symmetry_multiplicity
  _atom_site_fract_x
  _atom_site_fract_y
  _atom_site_fract_z
  _atom_site_occupancy
  Y   Y1        1.0  0.50000  0.50000  0.50000  1.0000
  Y   Y2        1.0  0.12500  0.12500  0.62500  1.0000
  Y   Y3        1.0  0.12500  0.12500  0.12500  1.0000
  Y   Y4        1.0  0.12500  0.62500  0.12500  1.0000
  Y   Y5        1.0  0.75000  0.75000  0.75000  1.0000
  Y   Y6        1.0  0.62500  0.12500  0.12500  1.0000
  Br  Br1       1.0  0.88403  0.88403  0.88403  1.0000
  Br  Br2       1.0  0.88403  0.88403  0.34791  1.0000
  Br  Br3       1.0  0.36597  0.36597  0.36597  1.0000
  Br  Br4       1.0  0.36597  0.36597  0.90209  1.0000
  Br  Br5       1.0  0.88403  0.34791  0.88403  1.0000
  Br  Br6       1.0  0.36597  0.90209  0.36597  1.0000
  Br  Br7       1.0  0.90209  0.36597  0.36597  1.0000
  Br  Br8       1.0  0.34791  0.88403  0.88403  1.0000
