data_image0
_chemical_formula_structural       Se2V6
_chemical_formula_sum              "Se2 V6"
_cell_length_a       5.31566
_cell_length_b       5.31472
_cell_length_c       4.50802
_cell_angle_alpha    90
_cell_angle_beta     90
_cell_angle_gamma    120.006

_space_group_name_H-M_alt    "P 1"
_space_group_IT_number       1

loop_
  _space_group_symop_operation_xyz
  'x, y, z'

loop_
  _atom_site_type_symbol
  _atom_site_label
  _atom_site_symmetry_multiplicity
  _atom_site_fract_x
  _atom_site_fract_y
  _atom_site_fract_z
  _atom_site_occupancy
  Se  Se1       1.0  0.33334  0.66668  0.75000  1.0000
  Se  Se2       1.0  0.66667  0.33334  0.25000  1.0000
  V   V1        1.0  0.15740  0.31481  0.25000  1.0000
  V   V2        1.0  0.68544  0.84269  0.25000  1.0000
  V   V3        1.0  0.15725  0.84269  0.25000  1.0000
  V   V4        1.0  0.84262  0.68523  0.75000  1.0000
  V   V5        1.0  0.31454  0.15727  0.75000  1.0000
  V   V6        1.0  0.84273  0.15727  0.75000  1.0000
