data_image0
_chemical_formula_structural       Y14F8
_chemical_formula_sum              "Y14 F8"
_cell_length_a       5.44283
_cell_length_b       8.61252
_cell_length_c       11.2449
_cell_angle_alpha    90
_cell_angle_beta     90
_cell_angle_gamma    90

_space_group_name_H-M_alt    "P 1"
_space_group_IT_number       1

loop_
  _space_group_symop_operation_xyz
  'x, y, z'

loop_
  _atom_site_type_symbol
  _atom_site_label
  _atom_site_symmetry_multiplicity
  _atom_site_fract_x
  _atom_site_fract_y
  _atom_site_fract_z
  _atom_site_occupancy
  Y   Y1        1.0  0.26183  0.20133  0.58311  1.0000
  Y   Y2        1.0  0.26183  0.79867  0.41689  1.0000
  Y   Y3        1.0  0.73817  0.29867  0.08311  1.0000
  Y   Y4        1.0  0.73817  0.70133  0.91689  1.0000
  Y   Y5        1.0  0.72872  0.16065  0.80103  1.0000
  Y   Y6        1.0  0.72872  0.83935  0.19897  1.0000
  Y   Y7        1.0  0.27128  0.33935  0.30103  1.0000
  Y   Y8        1.0  0.27128  0.66065  0.69897  1.0000
  Y   Y9        1.0  0.23098  0.36907  0.88441  1.0000
  Y   Y10       1.0  0.23098  0.63093  0.11559  1.0000
  Y   Y11       1.0  0.76902  0.13093  0.38441  1.0000
  Y   Y12       1.0  0.76902  0.86907  0.61559  1.0000
  Y   Y13       1.0  0.76538  0.50000  0.50000  1.0000
  Y   Y14       1.0  0.23462  0.00000  0.00000  1.0000
  F   F1        1.0  0.46743  0.36119  0.71112  1.0000
  F   F2        1.0  0.46743  0.63881  0.28888  1.0000
  F   F3        1.0  0.53257  0.13881  0.21112  1.0000
  F   F4        1.0  0.53257  0.86119  0.78888  1.0000
  F   F5        1.0  0.31511  0.50000  0.50000  1.0000
  F   F6        1.0  0.68489  0.00000  0.00000  1.0000
  F   F7        1.0  0.04171  0.00000  0.50000  1.0000
  F   F8        1.0  0.95829  0.50000  0.00000  1.0000
