data_image0
_chemical_formula_structural       Y8F16
_chemical_formula_sum              "Y8 F16"
_cell_length_a       5.31028
_cell_length_b       8.77863
_cell_length_c       12.6111
_cell_angle_alpha    90
_cell_angle_beta     90
_cell_angle_gamma    90

_space_group_name_H-M_alt    "P 1"
_space_group_IT_number       1

loop_
  _space_group_symop_operation_xyz
  'x, y, z'

loop_
  _atom_site_type_symbol
  _atom_site_label
  _atom_site_symmetry_multiplicity
  _atom_site_fract_x
  _atom_site_fract_y
  _atom_site_fract_z
  _atom_site_occupancy
  Y   Y1        1.0  0.69851  0.91179  0.09442  1.0000
  Y   Y2        1.0  0.80149  0.58821  0.59442  1.0000
  Y   Y3        1.0  0.80149  0.41179  0.90558  1.0000
  Y   Y4        1.0  0.69851  0.08821  0.40558  1.0000
  Y   Y5        1.0  0.30149  0.08821  0.90558  1.0000
  Y   Y6        1.0  0.19851  0.41179  0.40558  1.0000
  Y   Y7        1.0  0.19851  0.58821  0.09442  1.0000
  Y   Y8        1.0  0.30149  0.91179  0.59442  1.0000
  F   F1        1.0  0.25315  0.50000  0.25000  1.0000
  F   F2        1.0  0.24685  0.00000  0.75000  1.0000
  F   F3        1.0  0.74685  0.50000  0.75000  1.0000
  F   F4        1.0  0.75315  0.00000  0.25000  1.0000
  F   F5        1.0  0.49746  0.87385  0.44282  1.0000
  F   F6        1.0  0.00254  0.62615  0.94282  1.0000
  F   F7        1.0  0.00254  0.37385  0.55718  1.0000
  F   F8        1.0  0.49746  0.12615  0.05718  1.0000
  F   F9        1.0  0.50254  0.12615  0.55718  1.0000
  F   F10       1.0  0.99746  0.37385  0.05718  1.0000
  F   F11       1.0  0.99746  0.62615  0.44282  1.0000
  F   F12       1.0  0.50254  0.87385  0.94282  1.0000
  F   F13       1.0  0.50000  0.50000  0.00000  1.0000
  F   F14       1.0  0.00000  0.00000  0.50000  1.0000
  F   F15       1.0  0.00000  0.00000  0.00000  1.0000
  F   F16       1.0  0.50000  0.50000  0.50000  1.0000
