data_image0
_chemical_formula_structural       Zn8Ag16
_chemical_formula_sum              "Zn8 Ag16"
_cell_length_a       4.69471
_cell_length_b       7.82224
_cell_length_c       11.2065
_cell_angle_alpha    90
_cell_angle_beta     90
_cell_angle_gamma    90

_space_group_name_H-M_alt    "P 1"
_space_group_IT_number       1

loop_
  _space_group_symop_operation_xyz
  'x, y, z'

loop_
  _atom_site_type_symbol
  _atom_site_label
  _atom_site_symmetry_multiplicity
  _atom_site_fract_x
  _atom_site_fract_y
  _atom_site_fract_z
  _atom_site_occupancy
  Zn  Zn1       1.0  0.54561  0.81755  0.12502  1.0000
  Zn  Zn2       1.0  0.95439  0.68245  0.62502  1.0000
  Zn  Zn3       1.0  0.95439  0.31755  0.87498  1.0000
  Zn  Zn4       1.0  0.54561  0.18245  0.37498  1.0000
  Zn  Zn5       1.0  0.45439  0.18245  0.87498  1.0000
  Zn  Zn6       1.0  0.04561  0.31755  0.37498  1.0000
  Zn  Zn7       1.0  0.04561  0.68245  0.12502  1.0000
  Zn  Zn8       1.0  0.45439  0.81755  0.62502  1.0000
  Ag  Ag1       1.0  0.50998  0.50000  0.25000  1.0000
  Ag  Ag2       1.0  0.99002  0.00000  0.75000  1.0000
  Ag  Ag3       1.0  0.49002  0.50000  0.75000  1.0000
  Ag  Ag4       1.0  0.00998  0.00000  0.25000  1.0000
  Ag  Ag5       1.0  0.50336  0.84778  0.37518  1.0000
  Ag  Ag6       1.0  0.99664  0.65222  0.87518  1.0000
  Ag  Ag7       1.0  0.99664  0.34778  0.62482  1.0000
  Ag  Ag8       1.0  0.50336  0.15222  0.12482  1.0000
  Ag  Ag9       1.0  0.49664  0.15222  0.62482  1.0000
  Ag  Ag10      1.0  0.00336  0.34778  0.12482  1.0000
  Ag  Ag11      1.0  0.00336  0.65222  0.37518  1.0000
  Ag  Ag12      1.0  0.49664  0.84778  0.87518  1.0000
  Ag  Ag13      1.0  0.50000  0.50000  0.00000  1.0000
  Ag  Ag14      1.0  0.00000  0.00000  0.50000  1.0000
  Ag  Ag15      1.0  0.00000  0.00000  0.00000  1.0000
  Ag  Ag16      1.0  0.50000  0.50000  0.50000  1.0000
