data_image0
_chemical_formula_structural       Y6Se6
_chemical_formula_sum              "Y6 Se6"
_cell_length_a       4.67716
_cell_length_b       4.67716
_cell_length_c       23.9108
_cell_angle_alpha    90
_cell_angle_beta     90
_cell_angle_gamma    120.402

_space_group_name_H-M_alt    "P 1"
_space_group_IT_number       1

loop_
  _space_group_symop_operation_xyz
  'x, y, z'

loop_
  _atom_site_type_symbol
  _atom_site_label
  _atom_site_symmetry_multiplicity
  _atom_site_fract_x
  _atom_site_fract_y
  _atom_site_fract_z
  _atom_site_occupancy
  Y   Y1        1.0  0.32814  0.67186  0.13020  1.0000
  Y   Y2        1.0  0.67186  0.32814  0.86980  1.0000
  Y   Y3        1.0  0.67186  0.32814  0.63020  1.0000
  Y   Y4        1.0  0.32814  0.67186  0.36980  1.0000
  Y   Y5        1.0  0.34067  0.65933  0.75000  1.0000
  Y   Y6        1.0  0.65933  0.34067  0.25000  1.0000
  Se  Se1       1.0  0.67237  0.32763  0.75000  1.0000
  Se  Se2       1.0  0.32763  0.67237  0.25000  1.0000
  Se  Se3       1.0  0.00383  0.99617  0.59568  1.0000
  Se  Se4       1.0  0.99617  0.00383  0.09568  1.0000
  Se  Se5       1.0  0.00383  0.99617  0.90432  1.0000
  Se  Se6       1.0  0.99617  0.00383  0.40432  1.0000
