data_image0
_chemical_formula_structural       Y4Br8
_chemical_formula_sum              "Y4 Br8"
_cell_length_a       13.0444
_cell_length_b       13.0444
_cell_length_c       15.2788
_cell_angle_alpha    30.8345
_cell_angle_beta     30.8345
_cell_angle_gamma    16.292

_space_group_name_H-M_alt    "P 1"
_space_group_IT_number       1

loop_
  _space_group_symop_operation_xyz
  'x, y, z'

loop_
  _atom_site_type_symbol
  _atom_site_label
  _atom_site_symmetry_multiplicity
  _atom_site_fract_x
  _atom_site_fract_y
  _atom_site_fract_z
  _atom_site_occupancy
  Y   Y1        1.0  0.73466  0.73466  0.92961  1.0000
  Y   Y2        1.0  0.26534  0.26534  0.07039  1.0000
  Y   Y3        1.0  0.38415  0.38415  0.38503  1.0000
  Y   Y4        1.0  0.61585  0.61585  0.61497  1.0000
  Br  Br1       1.0  0.07317  0.07317  0.08784  1.0000
  Br  Br2       1.0  0.92683  0.92683  0.91216  1.0000
  Br  Br3       1.0  0.83501  0.83501  0.59513  1.0000
  Br  Br4       1.0  0.16499  0.16499  0.40487  1.0000
  Br  Br5       1.0  0.59906  0.59906  0.27720  1.0000
  Br  Br6       1.0  0.40094  0.40094  0.72280  1.0000
  Br  Br7       1.0  0.15340  0.15340  0.70645  1.0000
  Br  Br8       1.0  0.84660  0.84660  0.29355  1.0000
