data_image0
_chemical_formula_structural       Zn2Ag4
_chemical_formula_sum              "Zn2 Ag4"
_cell_length_a       5.31453
_cell_length_b       5.31453
_cell_length_c       4.59329
_cell_angle_alpha    90
_cell_angle_beta     90
_cell_angle_gamma    128.746

_space_group_name_H-M_alt    "P 1"
_space_group_IT_number       1

loop_
  _space_group_symop_operation_xyz
  'x, y, z'

loop_
  _atom_site_type_symbol
  _atom_site_label
  _atom_site_symmetry_multiplicity
  _atom_site_fract_x
  _atom_site_fract_y
  _atom_site_fract_z
  _atom_site_occupancy
  Zn  Zn1       1.0  0.22355  0.22355  0.75000  1.0000
  Zn  Zn2       1.0  0.77645  0.77645  0.25000  1.0000
  Ag  Ag1       1.0  0.56926  0.88346  0.75000  1.0000
  Ag  Ag2       1.0  0.88346  0.56926  0.75000  1.0000
  Ag  Ag3       1.0  0.11654  0.43074  0.25000  1.0000
  Ag  Ag4       1.0  0.43074  0.11654  0.25000  1.0000
