data_image0
_chemical_formula_structural       Y2Br4
_chemical_formula_sum              "Y2 Br4"
_cell_length_a       3.67938
_cell_length_b       7.00987
_cell_length_c       7.32884
_cell_angle_alpha    90
_cell_angle_beta     90
_cell_angle_gamma    90

_space_group_name_H-M_alt    "P 1"
_space_group_IT_number       1

loop_
  _space_group_symop_operation_xyz
  'x, y, z'

loop_
  _atom_site_type_symbol
  _atom_site_label
  _atom_site_symmetry_multiplicity
  _atom_site_fract_x
  _atom_site_fract_y
  _atom_site_fract_z
  _atom_site_occupancy
  Y   Y1        1.0  0.00000  0.00000  0.00000  1.0000
  Y   Y2        1.0  0.50000  0.50000  0.50000  1.0000
  Br  Br1       1.0  0.00000  0.23381  0.32805  1.0000
  Br  Br2       1.0  0.00000  0.76619  0.67195  1.0000
  Br  Br3       1.0  0.50000  0.73381  0.17195  1.0000
  Br  Br4       1.0  0.50000  0.26619  0.82805  1.0000
