data_image0
_chemical_formula_structural       YCl
_chemical_formula_sum              "Y1 Cl1"
_cell_length_a       4.87659
_cell_length_b       4.87659
_cell_length_c       4.87659
_cell_angle_alpha    41.7505
_cell_angle_beta     41.7505
_cell_angle_gamma    41.7505

_space_group_name_H-M_alt    "P 1"
_space_group_IT_number       1

loop_
  _space_group_symop_operation_xyz
  'x, y, z'

loop_
  _atom_site_type_symbol
  _atom_site_label
  _atom_site_symmetry_multiplicity
  _atom_site_fract_x
  _atom_site_fract_y
  _atom_site_fract_z
  _atom_site_occupancy
  Y   Y1        1.0  0.50000  0.50000  0.50000  1.0000
  Cl  Cl1       1.0  0.00000  0.00000  0.00000  1.0000
