data_image0
_chemical_formula_structural       Y8I16
_chemical_formula_sum              "Y8 I16"
_cell_length_a       8.94861
_cell_length_b       6.9271
_cell_length_c       15.2599
_cell_angle_alpha    90
_cell_angle_beta     90
_cell_angle_gamma    90

_space_group_name_H-M_alt    "P 1"
_space_group_IT_number       1

loop_
  _space_group_symop_operation_xyz
  'x, y, z'

loop_
  _atom_site_type_symbol
  _atom_site_label
  _atom_site_symmetry_multiplicity
  _atom_site_fract_x
  _atom_site_fract_y
  _atom_site_fract_z
  _atom_site_occupancy
  Y   Y1        1.0  0.69687  0.85052  0.06444  1.0000
  Y   Y2        1.0  0.80313  0.64948  0.56444  1.0000
  Y   Y3        1.0  0.80313  0.35052  0.93556  1.0000
  Y   Y4        1.0  0.69687  0.14948  0.43556  1.0000
  Y   Y5        1.0  0.30313  0.14948  0.93556  1.0000
  Y   Y6        1.0  0.19687  0.35052  0.43556  1.0000
  Y   Y7        1.0  0.19687  0.64948  0.06444  1.0000
  Y   Y8        1.0  0.30313  0.85052  0.56444  1.0000
  I   I1        1.0  0.29105  0.50000  0.25000  1.0000
  I   I2        1.0  0.20895  0.00000  0.75000  1.0000
  I   I3        1.0  0.70895  0.50000  0.75000  1.0000
  I   I4        1.0  0.79105  0.00000  0.25000  1.0000
  I   I5        1.0  0.38813  0.99417  0.37793  1.0000
  I   I6        1.0  0.11187  0.50583  0.87793  1.0000
  I   I7        1.0  0.11187  0.49417  0.62207  1.0000
  I   I8        1.0  0.38813  0.00583  0.12207  1.0000
  I   I9        1.0  0.61187  0.00583  0.62207  1.0000
  I   I10       1.0  0.88813  0.49417  0.12207  1.0000
  I   I11       1.0  0.88813  0.50583  0.37793  1.0000
  I   I12       1.0  0.61187  0.99417  0.87793  1.0000
  I   I13       1.0  0.50000  0.50000  0.00000  1.0000
  I   I14       1.0  0.00000  0.00000  0.50000  1.0000
  I   I15       1.0  0.00000  0.00000  0.00000  1.0000
  I   I16       1.0  0.50000  0.50000  0.50000  1.0000
