data_image0
_chemical_formula_structural       Au9Zn13
_chemical_formula_sum              "Au9 Zn13"
_cell_length_a       8.79008
_cell_length_b       8.79008
_cell_length_c       5.41564
_cell_angle_alpha    90
_cell_angle_beta     90
_cell_angle_gamma    120

_space_group_name_H-M_alt    "P 1"
_space_group_IT_number       1

loop_
  _space_group_symop_operation_xyz
  'x, y, z'

loop_
  _atom_site_type_symbol
  _atom_site_label
  _atom_site_symmetry_multiplicity
  _atom_site_fract_x
  _atom_site_fract_y
  _atom_site_fract_z
  _atom_site_occupancy
  Au  Au1       1.0  0.00000  0.00000  0.50000  1.0000
  Au  Au2       1.0  0.33333  0.66667  0.73484  1.0000
  Au  Au3       1.0  0.66667  0.33333  0.26516  1.0000
  Au  Au4       1.0  0.19571  0.80429  0.24191  1.0000
  Au  Au5       1.0  0.19571  0.39143  0.24191  1.0000
  Au  Au6       1.0  0.60857  0.80429  0.24191  1.0000
  Au  Au7       1.0  0.39143  0.19571  0.75809  1.0000
  Au  Au8       1.0  0.80429  0.60857  0.75809  1.0000
  Au  Au9       1.0  0.80429  0.19571  0.75809  1.0000
  Zn  Zn1       1.0  0.00000  0.00000  0.00000  1.0000
  Zn  Zn2       1.0  0.50000  0.00000  0.00000  1.0000
  Zn  Zn3       1.0  0.00000  0.50000  0.00000  1.0000
  Zn  Zn4       1.0  0.50000  0.50000  0.00000  1.0000
  Zn  Zn5       1.0  0.50000  0.00000  0.50000  1.0000
  Zn  Zn6       1.0  0.00000  0.50000  0.50000  1.0000
  Zn  Zn7       1.0  0.50000  0.50000  0.50000  1.0000
  Zn  Zn8       1.0  0.15740  0.84260  0.74315  1.0000
  Zn  Zn9       1.0  0.15740  0.31480  0.74315  1.0000
  Zn  Zn10      1.0  0.68520  0.84260  0.74315  1.0000
  Zn  Zn11      1.0  0.31480  0.15740  0.25685  1.0000
  Zn  Zn12      1.0  0.84260  0.68520  0.25685  1.0000
  Zn  Zn13      1.0  0.84260  0.15740  0.25685  1.0000
