data_image0
_chemical_formula_structural       Zn2Au4
_chemical_formula_sum              "Zn2 Au4"
_cell_length_a       4.48152
_cell_length_b       2.99584
_cell_length_c       7.71654
_cell_angle_alpha    90
_cell_angle_beta     90
_cell_angle_gamma    90

_space_group_name_H-M_alt    "P 1"
_space_group_IT_number       1

loop_
  _space_group_symop_operation_xyz
  'x, y, z'

loop_
  _atom_site_type_symbol
  _atom_site_label
  _atom_site_symmetry_multiplicity
  _atom_site_fract_x
  _atom_site_fract_y
  _atom_site_fract_z
  _atom_site_occupancy
  Zn  Zn1       1.0  0.50000  0.50000  0.50000  1.0000
  Zn  Zn2       1.0  0.00000  0.00000  0.00000  1.0000
  Au  Au1       1.0  0.50000  0.24272  0.83235  1.0000
  Au  Au2       1.0  0.50000  0.75728  0.16765  1.0000
  Au  Au3       1.0  0.00000  0.25728  0.33235  1.0000
  Au  Au4       1.0  0.00000  0.74272  0.66765  1.0000
