data_image0
_chemical_formula_structural       I4Y2
_chemical_formula_sum              "I4 Y2"
_cell_length_a       6.40479
_cell_length_b       6.40479
_cell_length_c       6.40479
_cell_angle_alpha    107.444
_cell_angle_beta     107.444
_cell_angle_gamma    113.607

_space_group_name_H-M_alt    "P 1"
_space_group_IT_number       1

loop_
  _space_group_symop_operation_xyz
  'x, y, z'

loop_
  _atom_site_type_symbol
  _atom_site_label
  _atom_site_symmetry_multiplicity
  _atom_site_fract_x
  _atom_site_fract_y
  _atom_site_fract_z
  _atom_site_occupancy
  I   I1        1.0  0.82283  0.32283  0.14567  1.0000
  I   I2        1.0  0.32283  0.17717  0.50000  1.0000
  I   I3        1.0  0.17717  0.67717  0.85433  1.0000
  I   I4        1.0  0.67717  0.82283  0.50000  1.0000
  Y   Y1        1.0  0.25000  0.25000  0.00000  1.0000
  Y   Y2        1.0  0.75000  0.75000  0.00000  1.0000
