data_image0
_chemical_formula_structural       Y4Hg8
_chemical_formula_sum              "Y4 Hg8"
_cell_length_a       10.283
_cell_length_b       10.283
_cell_length_c       12.6745
_cell_angle_alpha    44.401
_cell_angle_beta     44.401
_cell_angle_gamma    20.6221

_space_group_name_H-M_alt    "P 1"
_space_group_IT_number       1

loop_
  _space_group_symop_operation_xyz
  'x, y, z'

loop_
  _atom_site_type_symbol
  _atom_site_label
  _atom_site_symmetry_multiplicity
  _atom_site_fract_x
  _atom_site_fract_y
  _atom_site_fract_z
  _atom_site_occupancy
  Y   Y1        1.0  0.72875  0.72875  0.88810  1.0000
  Y   Y2        1.0  0.27125  0.27125  0.11190  1.0000
  Y   Y3        1.0  0.36885  0.36885  0.39190  1.0000
  Y   Y4        1.0  0.63115  0.63115  0.60810  1.0000
  Hg  Hg1       1.0  0.03600  0.03600  0.09392  1.0000
  Hg  Hg2       1.0  0.96400  0.96400  0.90608  1.0000
  Hg  Hg3       1.0  0.91187  0.91187  0.53341  1.0000
  Hg  Hg4       1.0  0.08813  0.08813  0.46659  1.0000
  Hg  Hg5       1.0  0.59946  0.59946  0.23516  1.0000
  Hg  Hg6       1.0  0.40054  0.40054  0.76484  1.0000
  Hg  Hg7       1.0  0.18114  0.18114  0.74350  1.0000
  Hg  Hg8       1.0  0.81886  0.81886  0.25650  1.0000
