data_image0
_chemical_formula_structural       Y8F8
_chemical_formula_sum              "Y8 F8"
_cell_length_a       6.69106
_cell_length_b       6.69106
_cell_length_c       7.00759
_cell_angle_alpha    90
_cell_angle_beta     90
_cell_angle_gamma    90

_space_group_name_H-M_alt    "P 1"
_space_group_IT_number       1

loop_
  _space_group_symop_operation_xyz
  'x, y, z'

loop_
  _atom_site_type_symbol
  _atom_site_label
  _atom_site_symmetry_multiplicity
  _atom_site_fract_x
  _atom_site_fract_y
  _atom_site_fract_z
  _atom_site_occupancy
  Y   Y1        1.0  0.49655  0.75017  0.00000  1.0000
  Y   Y2        1.0  0.24983  0.49655  0.50000  1.0000
  Y   Y3        1.0  0.75017  0.50345  0.50000  1.0000
  Y   Y4        1.0  0.50345  0.24983  0.00000  1.0000
  Y   Y5        1.0  0.50000  0.00000  0.50000  1.0000
  Y   Y6        1.0  0.00000  0.50000  0.00000  1.0000
  Y   Y7        1.0  0.00000  0.00000  0.75000  1.0000
  Y   Y8        1.0  0.00000  0.00000  0.25000  1.0000
  F   F1        1.0  0.19349  0.28729  0.81336  1.0000
  F   F2        1.0  0.71271  0.19349  0.31336  1.0000
  F   F3        1.0  0.28729  0.80651  0.31336  1.0000
  F   F4        1.0  0.80651  0.71271  0.81336  1.0000
  F   F5        1.0  0.80651  0.71271  0.18664  1.0000
  F   F6        1.0  0.28729  0.80651  0.68664  1.0000
  F   F7        1.0  0.71271  0.19349  0.68664  1.0000
  F   F8        1.0  0.19349  0.28729  0.18664  1.0000
