data_image0
_chemical_formula_structural       Y9F9
_chemical_formula_sum              "Y9 F9"
_cell_length_a       7.41179
_cell_length_b       7.41179
_cell_length_c       7.56264
_cell_angle_alpha    90
_cell_angle_beta     90
_cell_angle_gamma    120

_space_group_name_H-M_alt    "P 1"
_space_group_IT_number       1

loop_
  _space_group_symop_operation_xyz
  'x, y, z'

loop_
  _atom_site_type_symbol
  _atom_site_label
  _atom_site_symmetry_multiplicity
  _atom_site_fract_x
  _atom_site_fract_y
  _atom_site_fract_z
  _atom_site_occupancy
  Y   Y1        1.0  1.00000  0.74216  0.21442  1.0000
  Y   Y2        1.0  0.74216  1.00000  0.21442  1.0000
  Y   Y3        1.0  0.25784  0.25784  0.21442  1.0000
  Y   Y4        1.0  0.42119  1.00000  0.92935  1.0000
  Y   Y5        1.0  0.57881  0.57881  0.92935  1.0000
  Y   Y6        1.0  1.00000  0.42119  0.92935  1.0000
  Y   Y7        1.0  0.33333  0.66667  0.47172  1.0000
  Y   Y8        1.0  0.00000  0.00000  0.75204  1.0000
  Y   Y9        1.0  0.66667  0.33333  0.47172  1.0000
  F   F1        1.0  1.00000  0.62334  0.50192  1.0000
  F   F2        1.0  0.62334  1.00000  0.50192  1.0000
  F   F3        1.0  0.37666  0.37666  0.50192  1.0000
  F   F4        1.0  0.29055  1.00000  0.65878  1.0000
  F   F5        1.0  0.70945  0.70945  0.65878  1.0000
  F   F6        1.0  1.00000  0.29055  0.65878  1.0000
  F   F7        1.0  0.33333  0.66667  0.77549  1.0000
  F   F8        1.0  0.00000  0.00000  0.39851  1.0000
  F   F9        1.0  0.66667  0.33333  0.77549  1.0000
