data_image0
_chemical_formula_structural       Zn3Au4
_chemical_formula_sum              "Zn3 Au4"
_cell_length_a       7.23456
_cell_length_b       7.23456
_cell_length_c       6.74883
_cell_angle_alpha    58.4954
_cell_angle_beta     58.4954
_cell_angle_gamma    23.6908

_space_group_name_H-M_alt    "P 1"
_space_group_IT_number       1

loop_
  _space_group_symop_operation_xyz
  'x, y, z'

loop_
  _atom_site_type_symbol
  _atom_site_label
  _atom_site_symmetry_multiplicity
  _atom_site_fract_x
  _atom_site_fract_y
  _atom_site_fract_z
  _atom_site_occupancy
  Zn  Zn1       1.0  0.27391  0.27391  0.79623  1.0000
  Zn  Zn2       1.0  0.72609  0.72609  0.20377  1.0000
  Zn  Zn3       1.0  0.50000  0.50000  0.50000  1.0000
  Au  Au1       1.0  0.86999  0.86999  0.39472  1.0000
  Au  Au2       1.0  0.13001  0.13001  0.60528  1.0000
  Au  Au3       1.0  0.41010  0.41010  0.96202  1.0000
  Au  Au4       1.0  0.58990  0.58990  0.03798  1.0000
