data_image0
_chemical_formula_structural       Br8Zn12
_chemical_formula_sum              "Br8 Zn12"
_cell_length_a       6.27246
_cell_length_b       6.27246
_cell_length_c       13.1888
_cell_angle_alpha    90
_cell_angle_beta     90
_cell_angle_gamma    120

_space_group_name_H-M_alt    "P 1"
_space_group_IT_number       1

loop_
  _space_group_symop_operation_xyz
  'x, y, z'

loop_
  _atom_site_type_symbol
  _atom_site_label
  _atom_site_symmetry_multiplicity
  _atom_site_fract_x
  _atom_site_fract_y
  _atom_site_fract_z
  _atom_site_occupancy
  Br  Br1       1.0  0.00000  0.00000  0.25000  1.0000
  Br  Br2       1.0  0.00000  0.00000  0.75000  1.0000
  Br  Br3       1.0  0.33333  0.66667  0.25000  1.0000
  Br  Br4       1.0  0.66667  0.33333  0.75000  1.0000
  Br  Br5       1.0  0.33333  0.66667  0.62576  1.0000
  Br  Br6       1.0  0.66667  0.33333  0.12576  1.0000
  Br  Br7       1.0  0.66667  0.33333  0.37424  1.0000
  Br  Br8       1.0  0.33333  0.66667  0.87424  1.0000
  Zn  Zn1       1.0  0.16765  0.33530  0.42528  1.0000
  Zn  Zn2       1.0  0.16765  0.83235  0.42528  1.0000
  Zn  Zn3       1.0  0.66470  0.83235  0.42528  1.0000
  Zn  Zn4       1.0  0.83235  0.16765  0.92528  1.0000
  Zn  Zn5       1.0  0.33530  0.16765  0.92528  1.0000
  Zn  Zn6       1.0  0.83235  0.66470  0.92528  1.0000
  Zn  Zn7       1.0  0.83235  0.66470  0.57472  1.0000
  Zn  Zn8       1.0  0.83235  0.16765  0.57472  1.0000
  Zn  Zn9       1.0  0.33530  0.16765  0.57472  1.0000
  Zn  Zn10      1.0  0.16765  0.83235  0.07472  1.0000
  Zn  Zn11      1.0  0.66470  0.83235  0.07472  1.0000
  Zn  Zn12      1.0  0.16765  0.33530  0.07472  1.0000
