data_image0
_chemical_formula_structural       Zn4Au12
_chemical_formula_sum              "Zn4 Au12"
_cell_length_a       8.89917
_cell_length_b       8.89917
_cell_length_c       5.68724
_cell_angle_alpha    90
_cell_angle_beta     90
_cell_angle_gamma    142.13

_space_group_name_H-M_alt    "P 1"
_space_group_IT_number       1

loop_
  _space_group_symop_operation_xyz
  'x, y, z'

loop_
  _atom_site_type_symbol
  _atom_site_label
  _atom_site_symmetry_multiplicity
  _atom_site_fract_x
  _atom_site_fract_y
  _atom_site_fract_z
  _atom_site_occupancy
  Zn  Zn1       1.0  0.63627  0.36373  0.00000  1.0000
  Zn  Zn2       1.0  0.36373  0.63627  0.00000  1.0000
  Zn  Zn3       1.0  0.13627  0.86373  0.50000  1.0000
  Zn  Zn4       1.0  0.86373  0.13627  0.50000  1.0000
  Au  Au1       1.0  0.68283  0.68283  0.18156  1.0000
  Au  Au2       1.0  0.18283  0.18283  0.31844  1.0000
  Au  Au3       1.0  0.81717  0.81717  0.68156  1.0000
  Au  Au4       1.0  0.38076  0.61924  0.50000  1.0000
  Au  Au5       1.0  0.99757  0.49757  0.75000  1.0000
  Au  Au6       1.0  0.88076  0.11924  0.00000  1.0000
  Au  Au7       1.0  0.00243  0.50243  0.25000  1.0000
  Au  Au8       1.0  0.31717  0.31717  0.81844  1.0000
  Au  Au9       1.0  0.61924  0.38076  0.50000  1.0000
  Au  Au10      1.0  0.11924  0.88076  0.00000  1.0000
  Au  Au11      1.0  0.50243  0.00243  0.25000  1.0000
  Au  Au12      1.0  0.49757  0.99757  0.75000  1.0000
