data_image0
_chemical_formula_structural       Br10Zn6
_chemical_formula_sum              "Br10 Zn6"
_cell_length_a       9.48872
_cell_length_b       9.48872
_cell_length_c       9.48872
_cell_angle_alpha    129.961
_cell_angle_beta     129.961
_cell_angle_gamma    73.4697

_space_group_name_H-M_alt    "P 1"
_space_group_IT_number       1

loop_
  _space_group_symop_operation_xyz
  'x, y, z'

loop_
  _atom_site_type_symbol
  _atom_site_label
  _atom_site_symmetry_multiplicity
  _atom_site_fract_x
  _atom_site_fract_y
  _atom_site_fract_z
  _atom_site_occupancy
  Br  Br1       1.0  0.52567  0.67396  0.50000  1.0000
  Br  Br2       1.0  0.47433  0.32604  0.50000  1.0000
  Br  Br3       1.0  0.50000  0.50000  0.00000  1.0000
  Br  Br4       1.0  0.00000  0.00000  0.00000  1.0000
  Br  Br5       1.0  0.17396  0.02567  0.50000  1.0000
  Br  Br6       1.0  0.02567  0.52567  0.85172  1.0000
  Br  Br7       1.0  0.67396  0.17396  0.14828  1.0000
  Br  Br8       1.0  0.32604  0.82604  0.85172  1.0000
  Br  Br9       1.0  0.97433  0.47433  0.14828  1.0000
  Br  Br10      1.0  0.82604  0.97433  0.50000  1.0000
  Zn  Zn1       1.0  0.70252  0.79748  0.50000  1.0000
  Zn  Zn2       1.0  0.79748  0.29748  0.09496  1.0000
  Zn  Zn3       1.0  0.20252  0.70252  0.90504  1.0000
  Zn  Zn4       1.0  0.29748  0.20252  0.50000  1.0000
  Zn  Zn5       1.0  0.25000  0.25000  0.00000  1.0000
  Zn  Zn6       1.0  0.75000  0.75000  1.00000  1.0000
