data_image0
_chemical_formula_structural       ZnF4
_chemical_formula_sum              "Zn1 F4"
_cell_length_a       4.7785
_cell_length_b       4.7785
_cell_length_c       4.7785
_cell_angle_alpha    95.3747
_cell_angle_beta     95.3747
_cell_angle_gamma    144.357

_space_group_name_H-M_alt    "P 1"
_space_group_IT_number       1

loop_
  _space_group_symop_operation_xyz
  'x, y, z'

loop_
  _atom_site_type_symbol
  _atom_site_label
  _atom_site_symmetry_multiplicity
  _atom_site_fract_x
  _atom_site_fract_y
  _atom_site_fract_z
  _atom_site_occupancy
  Zn  Zn1       1.0  0.00000  0.00000  0.00000  1.0000
  F   F1        1.0  0.57186  0.73545  0.30730  1.0000
  F   F2        1.0  0.42814  0.26455  0.69270  1.0000
  F   F3        1.0  0.26455  0.57186  0.83641  1.0000
  F   F4        1.0  0.73545  0.42814  0.16359  1.0000
