data_image0
_chemical_formula_structural       Zn14Br20
_chemical_formula_sum              "Zn14 Br20"
_cell_length_a       10.1846
_cell_length_b       10.1846
_cell_length_c       11.647
_cell_angle_alpha    92.086
_cell_angle_beta     92.086
_cell_angle_gamma    99.4653

_space_group_name_H-M_alt    "P 1"
_space_group_IT_number       1

loop_
  _space_group_symop_operation_xyz
  'x, y, z'

loop_
  _atom_site_type_symbol
  _atom_site_label
  _atom_site_symmetry_multiplicity
  _atom_site_fract_x
  _atom_site_fract_y
  _atom_site_fract_z
  _atom_site_occupancy
  Zn  Zn1       1.0  0.22336  0.70022  0.69504  1.0000
  Zn  Zn2       1.0  0.52717  0.52717  0.63941  1.0000
  Zn  Zn3       1.0  0.06047  0.34933  0.84274  1.0000
  Zn  Zn4       1.0  0.77664  0.29978  0.30496  1.0000
  Zn  Zn5       1.0  0.19847  0.19847  0.25029  1.0000
  Zn  Zn6       1.0  0.65067  0.93953  0.15726  1.0000
  Zn  Zn7       1.0  0.08722  0.08722  0.44618  1.0000
  Zn  Zn8       1.0  0.93953  0.65067  0.15726  1.0000
  Zn  Zn9       1.0  0.29978  0.77664  0.30496  1.0000
  Zn  Zn10      1.0  0.91278  0.91278  0.55382  1.0000
  Zn  Zn11      1.0  0.34933  0.06047  0.84274  1.0000
  Zn  Zn12      1.0  0.47283  0.47283  0.36059  1.0000
  Zn  Zn13      1.0  0.80153  0.80153  0.74971  1.0000
  Zn  Zn14      1.0  0.70022  0.22336  0.69504  1.0000
  Br  Br1       1.0  0.11829  0.84476  0.18400  1.0000
  Br  Br2       1.0  0.56022  0.32327  0.22567  1.0000
  Br  Br3       1.0  0.21037  0.78963  0.50000  1.0000
  Br  Br4       1.0  0.06573  0.49046  0.67544  1.0000
  Br  Br5       1.0  0.88171  0.15524  0.81600  1.0000
  Br  Br6       1.0  0.32327  0.56022  0.22567  1.0000
  Br  Br7       1.0  0.50954  0.93427  0.32456  1.0000
  Br  Br8       1.0  0.78963  0.21037  0.50000  1.0000
  Br  Br9       1.0  0.43978  0.67673  0.77433  1.0000
  Br  Br10      1.0  0.15524  0.88171  0.81600  1.0000
  Br  Br11      1.0  0.93427  0.50954  0.32456  1.0000
  Br  Br12      1.0  0.72418  0.72418  0.10560  1.0000
  Br  Br13      1.0  0.00000  0.50000  0.00000  1.0000
  Br  Br14      1.0  0.63595  0.63595  0.47358  1.0000
  Br  Br15      1.0  0.49046  0.06573  0.67544  1.0000
  Br  Br16      1.0  0.84476  0.11829  0.18400  1.0000
  Br  Br17      1.0  0.67673  0.43978  0.77433  1.0000
  Br  Br18      1.0  0.27582  0.27582  0.89440  1.0000
  Br  Br19      1.0  0.50000  0.00000  0.00000  1.0000
  Br  Br20      1.0  0.36405  0.36405  0.52642  1.0000
