data_image0
_chemical_formula_structural       Cl8Zn12
_chemical_formula_sum              "Cl8 Zn12"
_cell_length_a       5.4751
_cell_length_b       5.4751
_cell_length_c       16.7209
_cell_angle_alpha    90
_cell_angle_beta     90
_cell_angle_gamma    120

_space_group_name_H-M_alt    "P 1"
_space_group_IT_number       1

loop_
  _space_group_symop_operation_xyz
  'x, y, z'

loop_
  _atom_site_type_symbol
  _atom_site_label
  _atom_site_symmetry_multiplicity
  _atom_site_fract_x
  _atom_site_fract_y
  _atom_site_fract_z
  _atom_site_occupancy
  Cl  Cl1       1.0  0.00000  0.00000  0.25000  1.0000
  Cl  Cl2       1.0  0.00000  0.00000  0.75000  1.0000
  Cl  Cl3       1.0  0.33333  0.66667  0.25000  1.0000
  Cl  Cl4       1.0  0.66667  0.33333  0.75000  1.0000
  Cl  Cl5       1.0  0.33333  0.66667  0.62009  1.0000
  Cl  Cl6       1.0  0.66667  0.33333  0.12009  1.0000
  Cl  Cl7       1.0  0.66667  0.33333  0.37991  1.0000
  Cl  Cl8       1.0  0.33333  0.66667  0.87991  1.0000
  Zn  Zn1       1.0  0.16712  0.33423  0.39218  1.0000
  Zn  Zn2       1.0  0.16712  0.83288  0.39218  1.0000
  Zn  Zn3       1.0  0.66577  0.83288  0.39218  1.0000
  Zn  Zn4       1.0  0.83288  0.16712  0.89218  1.0000
  Zn  Zn5       1.0  0.33423  0.16712  0.89218  1.0000
  Zn  Zn6       1.0  0.83288  0.66577  0.89218  1.0000
  Zn  Zn7       1.0  0.83288  0.66577  0.60782  1.0000
  Zn  Zn8       1.0  0.83288  0.16712  0.60782  1.0000
  Zn  Zn9       1.0  0.33423  0.16712  0.60782  1.0000
  Zn  Zn10      1.0  0.16712  0.83288  0.10782  1.0000
  Zn  Zn11      1.0  0.66577  0.83288  0.10782  1.0000
  Zn  Zn12      1.0  0.16712  0.33423  0.10782  1.0000
