data_image0
_chemical_formula_structural       Zn4Br12
_chemical_formula_sum              "Zn4 Br12"
_cell_length_a       8.10694
_cell_length_b       8.10694
_cell_length_c       10.9589
_cell_angle_alpha    90
_cell_angle_beta     90
_cell_angle_gamma    91.6138

_space_group_name_H-M_alt    "P 1"
_space_group_IT_number       1

loop_
  _space_group_symop_operation_xyz
  'x, y, z'

loop_
  _atom_site_type_symbol
  _atom_site_label
  _atom_site_symmetry_multiplicity
  _atom_site_fract_x
  _atom_site_fract_y
  _atom_site_fract_z
  _atom_site_occupancy
  Zn  Zn1       1.0  0.63515  0.36485  0.00000  1.0000
  Zn  Zn2       1.0  0.36485  0.63515  0.00000  1.0000
  Zn  Zn3       1.0  0.13515  0.86485  0.50000  1.0000
  Zn  Zn4       1.0  0.86485  0.13515  0.50000  1.0000
  Br  Br1       1.0  0.66329  0.66329  0.99690  1.0000
  Br  Br2       1.0  0.16329  0.16329  0.50310  1.0000
  Br  Br3       1.0  0.83671  0.83671  0.49690  1.0000
  Br  Br4       1.0  0.33546  0.66454  0.50000  1.0000
  Br  Br5       1.0  0.74730  0.24730  0.75000  1.0000
  Br  Br6       1.0  0.83546  0.16454  0.00000  1.0000
  Br  Br7       1.0  0.25270  0.75270  0.25000  1.0000
  Br  Br8       1.0  0.33671  0.33671  0.00310  1.0000
  Br  Br9       1.0  0.66454  0.33546  0.50000  1.0000
  Br  Br10      1.0  0.16454  0.83546  0.00000  1.0000
  Br  Br11      1.0  0.75270  0.25270  0.25000  1.0000
  Br  Br12      1.0  0.24730  0.74730  0.75000  1.0000
