data_image0
_chemical_formula_structural       Cl10Zn6
_chemical_formula_sum              "Cl10 Zn6"
_cell_length_a       8.94987
_cell_length_b       8.94987
_cell_length_c       8.94987
_cell_angle_alpha    129.771
_cell_angle_beta     129.771
_cell_angle_gamma    73.7734

_space_group_name_H-M_alt    "P 1"
_space_group_IT_number       1

loop_
  _space_group_symop_operation_xyz
  'x, y, z'

loop_
  _atom_site_type_symbol
  _atom_site_label
  _atom_site_symmetry_multiplicity
  _atom_site_fract_x
  _atom_site_fract_y
  _atom_site_fract_z
  _atom_site_occupancy
  Cl  Cl1       1.0  0.52756  0.67424  0.50000  1.0000
  Cl  Cl2       1.0  0.47244  0.32576  0.50000  1.0000
  Cl  Cl3       1.0  0.50000  0.50000  0.00000  1.0000
  Cl  Cl4       1.0  0.00000  0.00000  0.00000  1.0000
  Cl  Cl5       1.0  0.17424  0.02756  0.50000  1.0000
  Cl  Cl6       1.0  0.02756  0.52756  0.85332  1.0000
  Cl  Cl7       1.0  0.67424  0.17424  0.14668  1.0000
  Cl  Cl8       1.0  0.32576  0.82576  0.85332  1.0000
  Cl  Cl9       1.0  0.97244  0.47244  0.14668  1.0000
  Cl  Cl10      1.0  0.82576  0.97244  0.50000  1.0000
  Zn  Zn1       1.0  0.70094  0.79906  0.50000  1.0000
  Zn  Zn2       1.0  0.79906  0.29906  0.09813  1.0000
  Zn  Zn3       1.0  0.20094  0.70094  0.90187  1.0000
  Zn  Zn4       1.0  0.29906  0.20094  0.50000  1.0000
  Zn  Zn5       1.0  0.25000  0.25000  0.00000  1.0000
  Zn  Zn6       1.0  0.75000  0.75000  1.00000  1.0000
