data_image0
_chemical_formula_structural       Zn2Au2
_chemical_formula_sum              "Zn2 Au2"
_cell_length_a       4.02516
_cell_length_b       4.02516
_cell_length_c       7.2119
_cell_angle_alpha    90
_cell_angle_beta     90
_cell_angle_gamma    120

_space_group_name_H-M_alt    "P 1"
_space_group_IT_number       1

loop_
  _space_group_symop_operation_xyz
  'x, y, z'

loop_
  _atom_site_type_symbol
  _atom_site_label
  _atom_site_symmetry_multiplicity
  _atom_site_fract_x
  _atom_site_fract_y
  _atom_site_fract_z
  _atom_site_occupancy
  Zn  Zn1       1.0  0.66667  0.33333  0.51168  1.0000
  Zn  Zn2       1.0  0.33333  0.66667  0.01168  1.0000
  Au  Au1       1.0  0.66667  0.33333  0.86418  1.0000
  Au  Au2       1.0  0.33333  0.66667  0.36418  1.0000
