data_image0
_chemical_formula_structural       Zn4Cl18
_chemical_formula_sum              "Zn4 Cl18"
_cell_length_a       11.9918
_cell_length_b       9.37542
_cell_length_c       7.53199
_cell_angle_alpha    82.0235
_cell_angle_beta     101.89
_cell_angle_gamma    118.428

_space_group_name_H-M_alt    "P 1"
_space_group_IT_number       1

loop_
  _space_group_symop_operation_xyz
  'x, y, z'

loop_
  _atom_site_type_symbol
  _atom_site_label
  _atom_site_symmetry_multiplicity
  _atom_site_fract_x
  _atom_site_fract_y
  _atom_site_fract_z
  _atom_site_occupancy
  Zn  Zn1       1.0  0.24789  0.02604  0.16414  1.0000
  Zn  Zn2       1.0  0.75211  0.97396  0.83586  1.0000
  Zn  Zn3       1.0  0.37593  0.35420  0.56110  1.0000
  Zn  Zn4       1.0  0.62407  0.64580  0.43890  1.0000
  Cl  Cl1       1.0  0.95482  0.25021  0.39843  1.0000
  Cl  Cl2       1.0  0.04518  0.74979  0.60157  1.0000
  Cl  Cl3       1.0  0.29833  0.33717  0.81914  1.0000
  Cl  Cl4       1.0  0.70167  0.66283  0.18086  1.0000
  Cl  Cl5       1.0  0.54681  0.76594  0.93503  1.0000
  Cl  Cl6       1.0  0.45319  0.23406  0.06497  1.0000
  Cl  Cl7       1.0  0.91760  0.90843  0.05483  1.0000
  Cl  Cl8       1.0  0.08240  0.09157  0.94517  1.0000
  Cl  Cl9       1.0  0.23834  0.10661  0.42688  1.0000
  Cl  Cl10      1.0  0.76166  0.89339  0.57312  1.0000
  Cl  Cl11      1.0  0.59168  0.41626  0.62430  1.0000
  Cl  Cl12      1.0  0.40832  0.58374  0.37570  1.0000
  Cl  Cl13      1.0  0.21735  0.79364  0.10100  1.0000
  Cl  Cl14      1.0  0.78265  0.20636  0.89900  1.0000
  Cl  Cl15      1.0  0.94244  0.52672  0.71171  1.0000
  Cl  Cl16      1.0  0.05756  0.47328  0.28829  1.0000
  Cl  Cl17      1.0  0.57157  0.16182  0.24815  1.0000
  Cl  Cl18      1.0  0.42843  0.83818  0.75185  1.0000
