data_image0
_chemical_formula_structural       Au12Zn8
_chemical_formula_sum              "Au12 Zn8"
_cell_length_a       5.54693
_cell_length_b       7.63078
_cell_length_c       8.75675
_cell_angle_alpha    90
_cell_angle_beta     90
_cell_angle_gamma    90

_space_group_name_H-M_alt    "P 1"
_space_group_IT_number       1

loop_
  _space_group_symop_operation_xyz
  'x, y, z'

loop_
  _atom_site_type_symbol
  _atom_site_label
  _atom_site_symmetry_multiplicity
  _atom_site_fract_x
  _atom_site_fract_y
  _atom_site_fract_z
  _atom_site_occupancy
  Au  Au1       1.0  0.25000  0.91795  0.37311  1.0000
  Au  Au2       1.0  0.75000  0.08205  0.62689  1.0000
  Au  Au3       1.0  0.50104  0.26170  0.38235  1.0000
  Au  Au4       1.0  0.00104  0.73830  0.61765  1.0000
  Au  Au5       1.0  0.49896  0.23830  0.88235  1.0000
  Au  Au6       1.0  0.00104  0.23830  0.88235  1.0000
  Au  Au7       1.0  0.49896  0.73830  0.61765  1.0000
  Au  Au8       1.0  0.99896  0.26170  0.38235  1.0000
  Au  Au9       1.0  0.50104  0.76170  0.11765  1.0000
  Au  Au10      1.0  0.25000  0.41795  0.12689  1.0000
  Au  Au11      1.0  0.99896  0.76170  0.11765  1.0000
  Au  Au12      1.0  0.75000  0.58205  0.87311  1.0000
  Zn  Zn1       1.0  0.25000  0.56631  0.39990  1.0000
  Zn  Zn2       1.0  0.25000  0.10023  0.63977  1.0000
  Zn  Zn3       1.0  0.75000  0.89977  0.36023  1.0000
  Zn  Zn4       1.0  0.75000  0.39977  0.13977  1.0000
  Zn  Zn5       1.0  0.25000  0.60023  0.86023  1.0000
  Zn  Zn6       1.0  0.25000  0.06631  0.10010  1.0000
  Zn  Zn7       1.0  0.75000  0.43369  0.60010  1.0000
  Zn  Zn8       1.0  0.75000  0.93369  0.89990  1.0000
