data_image0
_chemical_formula_structural       Zn3Br2
_chemical_formula_sum              "Zn3 Br2"
_cell_length_a       5.34642
_cell_length_b       5.34642
_cell_length_c       5.34642
_cell_angle_alpha    77.9618
_cell_angle_beta     77.9618
_cell_angle_gamma    77.9618

_space_group_name_H-M_alt    "P 1"
_space_group_IT_number       1

loop_
  _space_group_symop_operation_xyz
  'x, y, z'

loop_
  _atom_site_type_symbol
  _atom_site_label
  _atom_site_symmetry_multiplicity
  _atom_site_fract_x
  _atom_site_fract_y
  _atom_site_fract_z
  _atom_site_occupancy
  Zn  Zn1       1.0  0.77629  0.22371  0.00000  1.0000
  Zn  Zn2       1.0  0.22371  1.00000  0.77629  1.0000
  Zn  Zn3       1.0  0.00000  0.77629  0.22371  1.0000
  Br  Br1       1.0  0.31284  0.31284  0.31284  1.0000
  Br  Br2       1.0  0.68716  0.68716  0.68716  1.0000
