data_image0
_chemical_formula_structural       Br6Zn2
_chemical_formula_sum              "Br6 Zn2"
_cell_length_a       10.904
_cell_length_b       10.904
_cell_length_c       3.15287
_cell_angle_alpha    90
_cell_angle_beta     90
_cell_angle_gamma    120

_space_group_name_H-M_alt    "P 1"
_space_group_IT_number       1

loop_
  _space_group_symop_operation_xyz
  'x, y, z'

loop_
  _atom_site_type_symbol
  _atom_site_label
  _atom_site_symmetry_multiplicity
  _atom_site_fract_x
  _atom_site_fract_y
  _atom_site_fract_z
  _atom_site_occupancy
  Br  Br1       1.0  0.22203  0.44407  0.25000  1.0000
  Br  Br2       1.0  0.55593  0.77797  0.25000  1.0000
  Br  Br3       1.0  0.22203  0.77797  0.25000  1.0000
  Br  Br4       1.0  0.77797  0.55593  0.75000  1.0000
  Br  Br5       1.0  0.44407  0.22203  0.75000  1.0000
  Br  Br6       1.0  0.77797  0.22203  0.75000  1.0000
  Zn  Zn1       1.0  0.33333  0.66667  0.75000  1.0000
  Zn  Zn2       1.0  0.66667  0.33333  0.25000  1.0000
