data_image0
_chemical_formula_structural       Cl4Zn2
_chemical_formula_sum              "Cl4 Zn2"
_cell_length_a       5.33696
_cell_length_b       5.33696
_cell_length_c       5.33696
_cell_angle_alpha    109.865
_cell_angle_beta     109.865
_cell_angle_gamma    108.687

_space_group_name_H-M_alt    "P 1"
_space_group_IT_number       1

loop_
  _space_group_symop_operation_xyz
  'x, y, z'

loop_
  _atom_site_type_symbol
  _atom_site_label
  _atom_site_symmetry_multiplicity
  _atom_site_fract_x
  _atom_site_fract_y
  _atom_site_fract_z
  _atom_site_occupancy
  Cl  Cl1       1.0  0.81314  0.31314  0.12629  1.0000
  Cl  Cl2       1.0  0.31314  0.18686  0.50000  1.0000
  Cl  Cl3       1.0  0.18686  0.68686  0.87371  1.0000
  Cl  Cl4       1.0  0.68686  0.81314  0.50000  1.0000
  Zn  Zn1       1.0  0.25000  0.25000  0.00000  1.0000
  Zn  Zn2       1.0  0.75000  0.75000  0.00000  1.0000
