data_image0
_chemical_formula_structural       Zn12Au28
_chemical_formula_sum              "Zn12 Au28"
_cell_length_a       7.13748
_cell_length_b       9.74992
_cell_length_c       10.7815
_cell_angle_alpha    108.736
_cell_angle_beta     100.208
_cell_angle_gamma    88.3437

_space_group_name_H-M_alt    "P 1"
_space_group_IT_number       1

loop_
  _space_group_symop_operation_xyz
  'x, y, z'

loop_
  _atom_site_type_symbol
  _atom_site_label
  _atom_site_symmetry_multiplicity
  _atom_site_fract_x
  _atom_site_fract_y
  _atom_site_fract_z
  _atom_site_occupancy
  Zn  Zn1       1.0  0.22313  0.47883  0.94310  1.0000
  Zn  Zn2       1.0  0.77687  0.52117  0.05690  1.0000
  Zn  Zn3       1.0  0.36688  0.01380  0.64293  1.0000
  Zn  Zn4       1.0  0.63312  0.98620  0.35707  1.0000
  Zn  Zn5       1.0  0.05896  0.69465  0.48815  1.0000
  Zn  Zn6       1.0  0.94104  0.30535  0.51185  1.0000
  Zn  Zn7       1.0  0.82576  0.73889  0.81213  1.0000
  Zn  Zn8       1.0  0.17424  0.26111  0.18787  1.0000
  Zn  Zn9       1.0  0.70111  0.17456  0.07881  1.0000
  Zn  Zn10      1.0  0.29889  0.82544  0.92119  1.0000
  Zn  Zn11      1.0  0.48008  0.39408  0.63897  1.0000
  Zn  Zn12      1.0  0.51992  0.60592  0.36103  1.0000
  Au  Au1       1.0  0.00000  0.00000  0.00000  1.0000
  Au  Au2       1.0  0.00000  0.00000  0.50000  1.0000
  Au  Au3       1.0  0.68048  0.88162  0.06591  1.0000
  Au  Au4       1.0  0.31952  0.11838  0.93409  1.0000
  Au  Au5       1.0  0.14379  0.56305  0.70006  1.0000
  Au  Au6       1.0  0.85621  0.43695  0.29994  1.0000
  Au  Au7       1.0  0.85463  0.45044  0.79110  1.0000
  Au  Au8       1.0  0.14537  0.54956  0.20890  1.0000
  Au  Au9       1.0  0.55749  0.29639  0.85953  1.0000
  Au  Au10      1.0  0.44251  0.70361  0.14047  1.0000
  Au  Au11      1.0  0.70239  0.84160  0.54718  1.0000
  Au  Au12      1.0  0.29761  0.15840  0.45282  1.0000
  Au  Au13      1.0  0.65159  0.98789  0.82265  1.0000
  Au  Au14      1.0  0.34841  0.01211  0.17735  1.0000
  Au  Au15      1.0  0.69626  0.15757  0.61745  1.0000
  Au  Au16      1.0  0.30374  0.84243  0.38255  1.0000
  Au  Au17      1.0  0.42063  0.73280  0.65224  1.0000
  Au  Au18      1.0  0.57937  0.26720  0.34776  1.0000
  Au  Au19      1.0  0.16684  0.25540  0.71740  1.0000
  Au  Au20      1.0  0.83316  0.74460  0.28260  1.0000
  Au  Au21      1.0  0.92959  0.10414  0.27176  1.0000
  Au  Au22      1.0  0.07041  0.89586  0.72824  1.0000
  Au  Au23      1.0  0.25904  0.45169  0.43777  1.0000
  Au  Au24      1.0  0.74096  0.54831  0.56223  1.0000
  Au  Au25      1.0  0.52281  0.60407  0.87264  1.0000
  Au  Au26      1.0  0.47719  0.39593  0.12736  1.0000
  Au  Au27      1.0  0.96521  0.27335  0.95421  1.0000
  Au  Au28      1.0  0.03479  0.72665  0.04579  1.0000
