data_image0
_chemical_formula_structural       Br2Zn6
_chemical_formula_sum              "Br2 Zn6"
_cell_length_a       8.41549
_cell_length_b       8.41549
_cell_length_c       8.41549
_cell_angle_alpha    147.541
_cell_angle_beta     147.541
_cell_angle_gamma    46.5637

_space_group_name_H-M_alt    "P 1"
_space_group_IT_number       1

loop_
  _space_group_symop_operation_xyz
  'x, y, z'

loop_
  _atom_site_type_symbol
  _atom_site_label
  _atom_site_symmetry_multiplicity
  _atom_site_fract_x
  _atom_site_fract_y
  _atom_site_fract_z
  _atom_site_occupancy
  Br  Br1       1.0  0.89184  0.89184  0.00000  1.0000
  Br  Br2       1.0  0.10816  0.10816  0.00000  1.0000
  Zn  Zn1       1.0  0.00000  0.50000  0.50000  1.0000
  Zn  Zn2       1.0  0.50000  0.00000  0.50000  1.0000
  Zn  Zn3       1.0  0.75000  0.25000  0.50000  1.0000
  Zn  Zn4       1.0  0.25000  0.75000  0.50000  1.0000
  Zn  Zn5       1.0  0.64081  0.64081  0.00000  1.0000
  Zn  Zn6       1.0  0.35919  0.35919  0.00000  1.0000
