data_image0
_chemical_formula_structural       Zn2Au4
_chemical_formula_sum              "Zn2 Au4"
_cell_length_a       5.23408
_cell_length_b       5.23408
_cell_length_c       5.23408
_cell_angle_alpha    113.837
_cell_angle_beta     113.837
_cell_angle_gamma    101.054

_space_group_name_H-M_alt    "P 1"
_space_group_IT_number       1

loop_
  _space_group_symop_operation_xyz
  'x, y, z'

loop_
  _atom_site_type_symbol
  _atom_site_label
  _atom_site_symmetry_multiplicity
  _atom_site_fract_x
  _atom_site_fract_y
  _atom_site_fract_z
  _atom_site_occupancy
  Zn  Zn1       1.0  0.25000  0.25000  0.00000  1.0000
  Zn  Zn2       1.0  0.75000  0.75000  0.00000  1.0000
  Au  Au1       1.0  0.67466  0.17466  0.84932  1.0000
  Au  Au2       1.0  0.32534  0.82534  0.15068  1.0000
  Au  Au3       1.0  0.82534  0.67466  0.50000  1.0000
  Au  Au4       1.0  0.17466  0.32534  0.50000  1.0000
