data_image0
_chemical_formula_structural       Zn10Au6
_chemical_formula_sum              "Zn10 Au6"
_cell_length_a       7.61453
_cell_length_b       7.61453
_cell_length_c       7.61453
_cell_angle_alpha    96.6352
_cell_angle_beta     96.6352
_cell_angle_gamma    140.256

_space_group_name_H-M_alt    "P 1"
_space_group_IT_number       1

loop_
  _space_group_symop_operation_xyz
  'x, y, z'

loop_
  _atom_site_type_symbol
  _atom_site_label
  _atom_site_symmetry_multiplicity
  _atom_site_fract_x
  _atom_site_fract_y
  _atom_site_fract_z
  _atom_site_occupancy
  Zn  Zn1       1.0  0.57795  0.26995  0.84790  1.0000
  Zn  Zn2       1.0  0.42205  0.73005  0.15210  1.0000
  Zn  Zn3       1.0  0.73005  0.57795  0.30800  1.0000
  Zn  Zn4       1.0  0.26995  0.42205  0.69200  1.0000
  Zn  Zn5       1.0  0.92205  0.76995  0.69200  1.0000
  Zn  Zn6       1.0  0.23005  0.92205  0.15210  1.0000
  Zn  Zn7       1.0  0.25000  0.75000  0.50000  1.0000
  Zn  Zn8       1.0  0.75000  0.25000  0.50000  1.0000
  Zn  Zn9       1.0  0.07795  0.23005  0.30800  1.0000
  Zn  Zn10      1.0  0.76995  0.07795  0.84790  1.0000
  Au  Au1       1.0  0.83390  0.33390  0.16780  1.0000
  Au  Au2       1.0  0.66610  0.83390  0.50000  1.0000
  Au  Au3       1.0  0.33390  0.16610  0.50000  1.0000
  Au  Au4       1.0  0.16610  0.66610  0.83220  1.0000
  Au  Au5       1.0  0.75000  0.75000  0.00000  1.0000
  Au  Au6       1.0  0.25000  0.25000  0.00000  1.0000
