data_image0
_chemical_formula_structural       Zn6Cl16
_chemical_formula_sum              "Zn6 Cl16"
_cell_length_a       6.94935
_cell_length_b       6.30611
_cell_length_c       16.8107
_cell_angle_alpha    53.8564
_cell_angle_beta     90
_cell_angle_gamma    90

_space_group_name_H-M_alt    "P 1"
_space_group_IT_number       1

loop_
  _space_group_symop_operation_xyz
  'x, y, z'

loop_
  _atom_site_type_symbol
  _atom_site_label
  _atom_site_symmetry_multiplicity
  _atom_site_fract_x
  _atom_site_fract_y
  _atom_site_fract_z
  _atom_site_occupancy
  Zn  Zn1       1.0  0.29142  0.77997  0.73807  1.0000
  Zn  Zn2       1.0  0.70858  0.22003  0.26193  1.0000
  Zn  Zn3       1.0  0.50000  0.00000  0.00000  1.0000
  Zn  Zn4       1.0  0.79142  0.22003  0.76193  1.0000
  Zn  Zn5       1.0  0.20858  0.77997  0.23807  1.0000
  Zn  Zn6       1.0  0.00000  0.00000  0.50000  1.0000
  Cl  Cl1       1.0  0.70409  0.66021  0.14823  1.0000
  Cl  Cl2       1.0  0.49945  0.09589  0.72040  1.0000
  Cl  Cl3       1.0  0.49691  0.67832  0.93226  1.0000
  Cl  Cl4       1.0  0.71835  0.16483  0.41126  1.0000
  Cl  Cl5       1.0  0.78165  0.16483  0.91126  1.0000
  Cl  Cl6       1.0  0.00055  0.09589  0.22040  1.0000
  Cl  Cl7       1.0  0.00309  0.67832  0.43226  1.0000
  Cl  Cl8       1.0  0.79591  0.66021  0.64823  1.0000
  Cl  Cl9       1.0  0.99945  0.90411  0.77960  1.0000
  Cl  Cl10      1.0  0.21835  0.83517  0.08874  1.0000
  Cl  Cl11      1.0  0.99691  0.32168  0.56774  1.0000
  Cl  Cl12      1.0  0.20409  0.33979  0.35177  1.0000
  Cl  Cl13      1.0  0.50309  0.32168  0.06774  1.0000
  Cl  Cl14      1.0  0.29591  0.33979  0.85177  1.0000
  Cl  Cl15      1.0  0.50055  0.90411  0.27960  1.0000
  Cl  Cl16      1.0  0.28165  0.83517  0.58874  1.0000
