data_image0
_chemical_formula_structural       Zn4Au18
_chemical_formula_sum              "Zn4 Au18"
_cell_length_a       7.43131
_cell_length_b       7.43131
_cell_length_c       7.37953
_cell_angle_alpha    84.2424
_cell_angle_beta     84.2424
_cell_angle_gamma    101.973

_space_group_name_H-M_alt    "P 1"
_space_group_IT_number       1

loop_
  _space_group_symop_operation_xyz
  'x, y, z'

loop_
  _atom_site_type_symbol
  _atom_site_label
  _atom_site_symmetry_multiplicity
  _atom_site_fract_x
  _atom_site_fract_y
  _atom_site_fract_z
  _atom_site_occupancy
  Zn  Zn1       1.0  0.36831  0.87234  0.11733  1.0000
  Zn  Zn2       1.0  0.12766  0.63169  0.38267  1.0000
  Zn  Zn3       1.0  0.63169  0.12766  0.88267  1.0000
  Zn  Zn4       1.0  0.87234  0.36831  0.61733  1.0000
  Au  Au1       1.0  0.43507  0.77188  0.56036  1.0000
  Au  Au2       1.0  0.22812  0.56493  0.93964  1.0000
  Au  Au3       1.0  0.80931  0.00399  0.59359  1.0000
  Au  Au4       1.0  0.99601  0.19069  0.90641  1.0000
  Au  Au5       1.0  0.19069  0.99601  0.40641  1.0000
  Au  Au6       1.0  0.00399  0.80931  0.09359  1.0000
  Au  Au7       1.0  0.23138  0.35091  0.57542  1.0000
  Au  Au8       1.0  0.64909  0.76862  0.92458  1.0000
  Au  Au9       1.0  0.76862  0.64909  0.42458  1.0000
  Au  Au10      1.0  0.35091  0.23138  0.07542  1.0000
  Au  Au11      1.0  0.00959  0.28772  0.28132  1.0000
  Au  Au12      1.0  0.71228  0.99041  0.21868  1.0000
  Au  Au13      1.0  0.99041  0.71228  0.71868  1.0000
  Au  Au14      1.0  0.28772  0.00959  0.78132  1.0000
  Au  Au15      1.0  0.77188  0.43507  0.06036  1.0000
  Au  Au16      1.0  0.56493  0.22812  0.43964  1.0000
  Au  Au17      1.0  0.44886  0.55114  0.25000  1.0000
  Au  Au18      1.0  0.55114  0.44886  0.75000  1.0000
