data_image0
_chemical_formula_structural       Au10Zn6
_chemical_formula_sum              "Au10 Zn6"
_cell_length_a       7.38131
_cell_length_b       7.38131
_cell_length_c       7.38131
_cell_angle_alpha    122.406
_cell_angle_beta     122.406
_cell_angle_gamma    85.8805

_space_group_name_H-M_alt    "P 1"
_space_group_IT_number       1

loop_
  _space_group_symop_operation_xyz
  'x, y, z'

loop_
  _atom_site_type_symbol
  _atom_site_label
  _atom_site_symmetry_multiplicity
  _atom_site_fract_x
  _atom_site_fract_y
  _atom_site_fract_z
  _atom_site_occupancy
  Au  Au1       1.0  0.49293  0.69029  0.50000  1.0000
  Au  Au2       1.0  0.50707  0.30971  0.50000  1.0000
  Au  Au3       1.0  0.50000  0.50000  0.00000  1.0000
  Au  Au4       1.0  0.00000  0.00000  0.00000  1.0000
  Au  Au5       1.0  0.19029  0.99293  0.50000  1.0000
  Au  Au6       1.0  0.99293  0.49293  0.80264  1.0000
  Au  Au7       1.0  0.69029  0.19029  0.19736  1.0000
  Au  Au8       1.0  0.30971  0.80971  0.80264  1.0000
  Au  Au9       1.0  0.00707  0.50707  0.19736  1.0000
  Au  Au10      1.0  0.80971  0.00707  0.50000  1.0000
  Zn  Zn1       1.0  0.85497  0.64503  0.50000  1.0000
  Zn  Zn2       1.0  0.64503  0.14503  0.79007  1.0000
  Zn  Zn3       1.0  0.35497  0.85497  0.20993  1.0000
  Zn  Zn4       1.0  0.14503  0.35497  0.50000  1.0000
  Zn  Zn5       1.0  0.25000  0.25000  0.00000  1.0000
  Zn  Zn6       1.0  0.75000  0.75000  0.00000  1.0000
