data_image0
_chemical_formula_structural       Zn14Br8
_chemical_formula_sum              "Zn14 Br8"
_cell_length_a       6.71904
_cell_length_b       7.57284
_cell_length_c       11.4062
_cell_angle_alpha    90
_cell_angle_beta     90
_cell_angle_gamma    90

_space_group_name_H-M_alt    "P 1"
_space_group_IT_number       1

loop_
  _space_group_symop_operation_xyz
  'x, y, z'

loop_
  _atom_site_type_symbol
  _atom_site_label
  _atom_site_symmetry_multiplicity
  _atom_site_fract_x
  _atom_site_fract_y
  _atom_site_fract_z
  _atom_site_occupancy
  Zn  Zn1       1.0  0.55846  0.15699  0.48925  1.0000
  Zn  Zn2       1.0  0.55846  0.84301  0.51075  1.0000
  Zn  Zn3       1.0  0.44154  0.34301  0.98925  1.0000
  Zn  Zn4       1.0  0.44154  0.65699  0.01075  1.0000
  Zn  Zn5       1.0  0.09067  0.23521  0.65844  1.0000
  Zn  Zn6       1.0  0.09067  0.76479  0.34156  1.0000
  Zn  Zn7       1.0  0.90933  0.26479  0.15844  1.0000
  Zn  Zn8       1.0  0.90933  0.73521  0.84156  1.0000
  Zn  Zn9       1.0  0.30909  0.15565  0.81692  1.0000
  Zn  Zn10      1.0  0.30909  0.84435  0.18308  1.0000
  Zn  Zn11      1.0  0.69091  0.34435  0.31692  1.0000
  Zn  Zn12      1.0  0.69091  0.65565  0.68308  1.0000
  Zn  Zn13      1.0  0.54241  0.50000  0.50000  1.0000
  Zn  Zn14      1.0  0.45759  0.00000  0.00000  1.0000
  Br  Br1       1.0  0.70180  0.28853  0.71201  1.0000
  Br  Br2       1.0  0.70180  0.71147  0.28799  1.0000
  Br  Br3       1.0  0.29820  0.21147  0.21201  1.0000
  Br  Br4       1.0  0.29820  0.78853  0.78799  1.0000
  Br  Br5       1.0  0.13869  0.50000  0.50000  1.0000
  Br  Br6       1.0  0.86131  0.00000  0.00000  1.0000
  Br  Br7       1.0  0.99014  0.00000  0.50000  1.0000
  Br  Br8       1.0  0.00986  0.50000  0.00000  1.0000
