data_image0
_chemical_formula_structural       Cl9Zn13
_chemical_formula_sum              "Cl9 Zn13"
_cell_length_a       11.5416
_cell_length_b       11.5416
_cell_length_c       4.82826
_cell_angle_alpha    90
_cell_angle_beta     90
_cell_angle_gamma    120

_space_group_name_H-M_alt    "P 1"
_space_group_IT_number       1

loop_
  _space_group_symop_operation_xyz
  'x, y, z'

loop_
  _atom_site_type_symbol
  _atom_site_label
  _atom_site_symmetry_multiplicity
  _atom_site_fract_x
  _atom_site_fract_y
  _atom_site_fract_z
  _atom_site_occupancy
  Cl  Cl1       1.0  0.00000  0.00000  0.50000  1.0000
  Cl  Cl2       1.0  0.33333  0.66667  0.78611  1.0000
  Cl  Cl3       1.0  0.66667  0.33333  0.21389  1.0000
  Cl  Cl4       1.0  0.18630  0.81370  0.26406  1.0000
  Cl  Cl5       1.0  0.18630  0.37259  0.26406  1.0000
  Cl  Cl6       1.0  0.62741  0.81370  0.26406  1.0000
  Cl  Cl7       1.0  0.37259  0.18630  0.73594  1.0000
  Cl  Cl8       1.0  0.81370  0.62741  0.73594  1.0000
  Cl  Cl9       1.0  0.81370  0.18630  0.73594  1.0000
  Zn  Zn1       1.0  0.00000  0.00000  0.00000  1.0000
  Zn  Zn2       1.0  0.50000  0.00000  0.00000  1.0000
  Zn  Zn3       1.0  0.00000  0.50000  0.00000  1.0000
  Zn  Zn4       1.0  0.50000  0.50000  0.00000  1.0000
  Zn  Zn5       1.0  0.50000  0.00000  0.50000  1.0000
  Zn  Zn6       1.0  0.00000  0.50000  0.50000  1.0000
  Zn  Zn7       1.0  0.50000  0.50000  0.50000  1.0000
  Zn  Zn8       1.0  0.20767  0.79233  0.76264  1.0000
  Zn  Zn9       1.0  0.20767  0.41533  0.76264  1.0000
  Zn  Zn10      1.0  0.58467  0.79233  0.76264  1.0000
  Zn  Zn11      1.0  0.41533  0.20767  0.23736  1.0000
  Zn  Zn12      1.0  0.79233  0.58467  0.23736  1.0000
  Zn  Zn13      1.0  0.79233  0.20767  0.23736  1.0000
