data_image0
_chemical_formula_structural       Zn8F16
_chemical_formula_sum              "Zn8 F16"
_cell_length_a       6.22386
_cell_length_b       6.22386
_cell_length_c       7.18834
_cell_angle_alpha    90
_cell_angle_beta     90
_cell_angle_gamma    109.421

_space_group_name_H-M_alt    "P 1"
_space_group_IT_number       1

loop_
  _space_group_symop_operation_xyz
  'x, y, z'

loop_
  _atom_site_type_symbol
  _atom_site_label
  _atom_site_symmetry_multiplicity
  _atom_site_fract_x
  _atom_site_fract_y
  _atom_site_fract_z
  _atom_site_occupancy
  Zn  Zn1       1.0  0.24947  0.24947  0.75081  1.0000
  Zn  Zn2       1.0  0.25053  0.25053  0.25081  1.0000
  Zn  Zn3       1.0  0.74947  0.74947  0.74919  1.0000
  Zn  Zn4       1.0  0.75053  0.75053  0.24919  1.0000
  Zn  Zn5       1.0  0.24982  0.75018  0.50000  1.0000
  Zn  Zn6       1.0  0.25018  0.74982  0.00000  1.0000
  Zn  Zn7       1.0  0.75018  0.24982  0.50000  1.0000
  Zn  Zn8       1.0  0.74982  0.25018  0.00000  1.0000
  F   F1        1.0  0.37525  0.62510  0.25129  1.0000
  F   F2        1.0  0.12475  0.87490  0.75129  1.0000
  F   F3        1.0  0.12510  0.87525  0.24871  1.0000
  F   F4        1.0  0.37490  0.62475  0.74871  1.0000
  F   F5        1.0  0.62475  0.37490  0.74871  1.0000
  F   F6        1.0  0.87525  0.12510  0.24871  1.0000
  F   F7        1.0  0.87490  0.12475  0.75129  1.0000
  F   F8        1.0  0.62510  0.37525  0.25129  1.0000
  F   F9        1.0  0.12604  0.37616  0.00034  1.0000
  F   F10       1.0  0.37396  0.12384  0.50034  1.0000
  F   F11       1.0  0.87616  0.62604  0.49966  1.0000
  F   F12       1.0  0.62384  0.87396  0.99966  1.0000
  F   F13       1.0  0.87396  0.62384  0.99966  1.0000
  F   F14       1.0  0.62604  0.87616  0.49966  1.0000
  F   F15       1.0  0.12384  0.37396  0.50034  1.0000
  F   F16       1.0  0.37616  0.12604  0.00034  1.0000
