data_image0
_chemical_formula_structural       Zn6F16
_chemical_formula_sum              "Zn6 F16"
_cell_length_a       5.13667
_cell_length_b       5.16976
_cell_length_c       11.2308
_cell_angle_alpha    69.5457
_cell_angle_beta     90
_cell_angle_gamma    90

_space_group_name_H-M_alt    "P 1"
_space_group_IT_number       1

loop_
  _space_group_symop_operation_xyz
  'x, y, z'

loop_
  _atom_site_type_symbol
  _atom_site_label
  _atom_site_symmetry_multiplicity
  _atom_site_fract_x
  _atom_site_fract_y
  _atom_site_fract_z
  _atom_site_occupancy
  Zn  Zn1       1.0  0.45726  0.74419  0.75225  1.0000
  Zn  Zn2       1.0  0.54274  0.25581  0.24775  1.0000
  Zn  Zn3       1.0  0.50000  0.00000  0.00000  1.0000
  Zn  Zn4       1.0  0.95726  0.25581  0.74775  1.0000
  Zn  Zn5       1.0  0.04274  0.74419  0.25225  1.0000
  Zn  Zn6       1.0  0.00000  0.00000  0.50000  1.0000
  F   F1        1.0  0.70454  0.62073  0.18224  1.0000
  F   F2        1.0  0.63231  0.09656  0.68857  1.0000
  F   F3        1.0  0.58511  0.73435  0.92121  1.0000
  F   F4        1.0  0.70178  0.20521  0.41597  1.0000
  F   F5        1.0  0.79822  0.20521  0.91597  1.0000
  F   F6        1.0  0.86769  0.09656  0.18857  1.0000
  F   F7        1.0  0.91489  0.73435  0.42121  1.0000
  F   F8        1.0  0.79546  0.62073  0.68224  1.0000
  F   F9        1.0  0.13231  0.90344  0.81143  1.0000
  F   F10       1.0  0.20178  0.79479  0.08403  1.0000
  F   F11       1.0  0.08511  0.26565  0.57879  1.0000
  F   F12       1.0  0.20454  0.37927  0.31776  1.0000
  F   F13       1.0  0.41489  0.26565  0.07879  1.0000
  F   F14       1.0  0.29546  0.37927  0.81776  1.0000
  F   F15       1.0  0.36769  0.90344  0.31143  1.0000
  F   F16       1.0  0.29822  0.79479  0.58403  1.0000
