data_image0
_chemical_formula_structural       Zn3F6
_chemical_formula_sum              "Zn3 F6"
_cell_length_a       3.93643
_cell_length_b       3.93643
_cell_length_c       6.84761
_cell_angle_alpha    90
_cell_angle_beta     90
_cell_angle_gamma    120

_space_group_name_H-M_alt    "P 1"
_space_group_IT_number       1

loop_
  _space_group_symop_operation_xyz
  'x, y, z'

loop_
  _atom_site_type_symbol
  _atom_site_label
  _atom_site_symmetry_multiplicity
  _atom_site_fract_x
  _atom_site_fract_y
  _atom_site_fract_z
  _atom_site_occupancy
  Zn  Zn1       1.0  0.00000  0.50000  0.16667  1.0000
  Zn  Zn2       1.0  0.50000  0.50000  0.83333  1.0000
  Zn  Zn3       1.0  0.50000  0.00000  0.50000  1.0000
  F   F1        1.0  0.82834  0.65668  0.50000  1.0000
  F   F2        1.0  0.17166  0.82834  0.83333  1.0000
  F   F3        1.0  0.65668  0.82834  0.16667  1.0000
  F   F4        1.0  0.17166  0.34332  0.50000  1.0000
  F   F5        1.0  0.82834  0.17166  0.83333  1.0000
  F   F6        1.0  0.34332  0.17166  0.16667  1.0000
