data_image0
_chemical_formula_structural       Zn4F8
_chemical_formula_sum              "Zn4 F8"
_cell_length_a       7.73498
_cell_length_b       7.73498
_cell_length_c       6.72641
_cell_angle_alpha    90
_cell_angle_beta     90
_cell_angle_gamma    157.11

_space_group_name_H-M_alt    "P 1"
_space_group_IT_number       1

loop_
  _space_group_symop_operation_xyz
  'x, y, z'

loop_
  _atom_site_type_symbol
  _atom_site_label
  _atom_site_symmetry_multiplicity
  _atom_site_fract_x
  _atom_site_fract_y
  _atom_site_fract_z
  _atom_site_occupancy
  Zn  Zn1       1.0  0.56836  0.43164  0.90036  1.0000
  Zn  Zn2       1.0  0.43164  0.56836  0.40036  1.0000
  Zn  Zn3       1.0  0.15489  0.84511  0.37898  1.0000
  Zn  Zn4       1.0  0.84511  0.15489  0.87898  1.0000
  F   F1        1.0  0.97725  0.02275  0.95553  1.0000
  F   F2        1.0  0.02275  0.97725  0.45553  1.0000
  F   F3        1.0  0.12697  0.87303  0.77864  1.0000
  F   F4        1.0  0.87303  0.12697  0.27864  1.0000
  F   F5        1.0  0.28488  0.71512  0.99307  1.0000
  F   F6        1.0  0.71512  0.28488  0.49307  1.0000
  F   F7        1.0  0.61680  0.38320  0.17910  1.0000
  F   F8        1.0  0.38320  0.61680  0.67910  1.0000
