data_image0
_chemical_formula_structural       ZnF4
_chemical_formula_sum              "Zn1 F4"
_cell_length_a       4.74299
_cell_length_b       4.74299
_cell_length_c       4.74299
_cell_angle_alpha    95.4061
_cell_angle_beta     95.4061
_cell_angle_gamma    144.25

_space_group_name_H-M_alt    "P 1"
_space_group_IT_number       1

loop_
  _space_group_symop_operation_xyz
  'x, y, z'

loop_
  _atom_site_type_symbol
  _atom_site_label
  _atom_site_symmetry_multiplicity
  _atom_site_fract_x
  _atom_site_fract_y
  _atom_site_fract_z
  _atom_site_occupancy
  Zn  Zn1       1.0  0.00000  0.00000  0.00000  1.0000
  F   F1        1.0  0.50579  0.25129  0.75709  1.0000
  F   F2        1.0  0.49421  0.74871  0.24291  1.0000
  F   F3        1.0  0.74871  0.50579  0.25450  1.0000
  F   F4        1.0  0.25129  0.49421  0.74550  1.0000
