data_image0
_chemical_formula_structural       Zn2F4
_chemical_formula_sum              "Zn2 F4"
_cell_length_a       4.39844
_cell_length_b       4.39844
_cell_length_c       4.39844
_cell_angle_alpha    111.739
_cell_angle_beta     111.739
_cell_angle_gamma    105.025

_space_group_name_H-M_alt    "P 1"
_space_group_IT_number       1

loop_
  _space_group_symop_operation_xyz
  'x, y, z'

loop_
  _atom_site_type_symbol
  _atom_site_label
  _atom_site_symmetry_multiplicity
  _atom_site_fract_x
  _atom_site_fract_y
  _atom_site_fract_z
  _atom_site_occupancy
  Zn  Zn1       1.0  0.25000  0.25000  0.00000  1.0000
  Zn  Zn2       1.0  0.75000  0.75000  0.00000  1.0000
  F   F1        1.0  0.71139  0.21139  0.92278  1.0000
  F   F2        1.0  0.28861  0.78861  0.07722  1.0000
  F   F3        1.0  0.78861  0.71139  0.50000  1.0000
  F   F4        1.0  0.21139  0.28861  0.50000  1.0000
