data_image0
_chemical_formula_structural       Zn3I4
_chemical_formula_sum              "Zn3 I4"
_cell_length_a       11.0209
_cell_length_b       11.0209
_cell_length_c       7.11147
_cell_angle_alpha    70.1267
_cell_angle_beta     70.1267
_cell_angle_gamma    21.3798

_space_group_name_H-M_alt    "P 1"
_space_group_IT_number       1

loop_
  _space_group_symop_operation_xyz
  'x, y, z'

loop_
  _atom_site_type_symbol
  _atom_site_label
  _atom_site_symmetry_multiplicity
  _atom_site_fract_x
  _atom_site_fract_y
  _atom_site_fract_z
  _atom_site_occupancy
  Zn  Zn1       1.0  0.25119  0.25119  0.74974  1.0000
  Zn  Zn2       1.0  0.74881  0.74881  0.25026  1.0000
  Zn  Zn3       1.0  0.50000  0.50000  0.50000  1.0000
  I   I1        1.0  0.83047  0.83047  0.49836  1.0000
  I   I2        1.0  0.16953  0.16953  0.50164  1.0000
  I   I3        1.0  0.33012  0.33012  0.00004  1.0000
  I   I4        1.0  0.66988  0.66988  0.99996  1.0000
