data_image0
_chemical_formula_structural       Zn6I10
_chemical_formula_sum              "Zn6 I10"
_cell_length_a       4.01689
_cell_length_b       10.6321
_cell_length_c       14.5408
_cell_angle_alpha    90
_cell_angle_beta     90
_cell_angle_gamma    90

_space_group_name_H-M_alt    "P 1"
_space_group_IT_number       1

loop_
  _space_group_symop_operation_xyz
  'x, y, z'

loop_
  _atom_site_type_symbol
  _atom_site_label
  _atom_site_symmetry_multiplicity
  _atom_site_fract_x
  _atom_site_fract_y
  _atom_site_fract_z
  _atom_site_occupancy
  Zn  Zn1       1.0  0.50000  0.31734  0.94979  1.0000
  Zn  Zn2       1.0  0.50000  0.81734  0.55021  1.0000
  Zn  Zn3       1.0  0.00000  0.50000  0.50000  1.0000
  Zn  Zn4       1.0  0.00000  0.00000  0.00000  1.0000
  Zn  Zn5       1.0  0.50000  0.68266  0.05021  1.0000
  Zn  Zn6       1.0  0.50000  0.18266  0.44979  1.0000
  I   I1        1.0  0.50000  0.63916  0.40590  1.0000
  I   I2        1.0  0.50000  0.36084  0.59410  1.0000
  I   I3        1.0  0.00000  0.18751  0.85034  1.0000
  I   I4        1.0  0.50000  0.86084  0.90590  1.0000
  I   I5        1.0  0.00000  0.31249  0.35034  1.0000
  I   I6        1.0  0.00000  0.81249  0.14966  1.0000
  I   I7        1.0  0.00000  0.68751  0.64966  1.0000
  I   I8        1.0  0.00000  0.50000  0.00000  1.0000
  I   I9        1.0  0.00000  0.00000  0.50000  1.0000
  I   I10       1.0  0.50000  0.13916  0.09410  1.0000
