data_image0
_chemical_formula_structural       Zn2I4
_chemical_formula_sum              "Zn2 I4"
_cell_length_a       3.98506
_cell_length_b       6.9773
_cell_length_c       7.75605
_cell_angle_alpha    90
_cell_angle_beta     90
_cell_angle_gamma    90

_space_group_name_H-M_alt    "P 1"
_space_group_IT_number       1

loop_
  _space_group_symop_operation_xyz
  'x, y, z'

loop_
  _atom_site_type_symbol
  _atom_site_label
  _atom_site_symmetry_multiplicity
  _atom_site_fract_x
  _atom_site_fract_y
  _atom_site_fract_z
  _atom_site_occupancy
  Zn  Zn1       1.0  0.50000  0.50000  0.50000  1.0000
  Zn  Zn2       1.0  0.00000  0.00000  0.00000  1.0000
  I   I1        1.0  0.50000  0.22206  0.85923  1.0000
  I   I2        1.0  0.50000  0.77794  0.14077  1.0000
  I   I3        1.0  0.00000  0.27794  0.35923  1.0000
  I   I4        1.0  0.00000  0.72206  0.64077  1.0000
