data_image0
_chemical_formula_structural       F10Zn6
_chemical_formula_sum              "F10 Zn6"
_cell_length_a       6.58255
_cell_length_b       6.58255
_cell_length_c       6.58255
_cell_angle_alpha    124.94
_cell_angle_beta     124.94
_cell_angle_gamma    81.6373

_space_group_name_H-M_alt    "P 1"
_space_group_IT_number       1

loop_
  _space_group_symop_operation_xyz
  'x, y, z'

loop_
  _atom_site_type_symbol
  _atom_site_label
  _atom_site_symmetry_multiplicity
  _atom_site_fract_x
  _atom_site_fract_y
  _atom_site_fract_z
  _atom_site_occupancy
  F   F1        1.0  0.52354  0.71887  0.50000  1.0000
  F   F2        1.0  0.47646  0.28113  0.50000  1.0000
  F   F3        1.0  0.50000  0.50000  0.00000  1.0000
  F   F4        1.0  0.00000  0.00000  0.00000  1.0000
  F   F5        1.0  0.21887  0.02354  0.50000  1.0000
  F   F6        1.0  0.02354  0.52354  0.80467  1.0000
  F   F7        1.0  0.71887  0.21887  0.19533  1.0000
  F   F8        1.0  0.28113  0.78113  0.80467  1.0000
  F   F9        1.0  0.97646  0.47646  0.19533  1.0000
  F   F10       1.0  0.78113  0.97646  0.50000  1.0000
  Zn  Zn1       1.0  0.84097  0.65903  0.50000  1.0000
  Zn  Zn2       1.0  0.65903  0.15903  0.81806  1.0000
  Zn  Zn3       1.0  0.34097  0.84097  0.18194  1.0000
  Zn  Zn4       1.0  0.15903  0.34097  0.50000  1.0000
  Zn  Zn5       1.0  0.25000  0.25000  0.00000  1.0000
  Zn  Zn6       1.0  0.75000  0.75000  0.00000  1.0000
