data_image0
_chemical_formula_structural       Zn12I16
_chemical_formula_sum              "Zn12 I16"
_cell_length_a       11.5912
_cell_length_b       11.5912
_cell_length_c       10.1634
_cell_angle_alpha    90
_cell_angle_beta     90
_cell_angle_gamma    120

_space_group_name_H-M_alt    "P 1"
_space_group_IT_number       1

loop_
  _space_group_symop_operation_xyz
  'x, y, z'

loop_
  _atom_site_type_symbol
  _atom_site_label
  _atom_site_symmetry_multiplicity
  _atom_site_fract_x
  _atom_site_fract_y
  _atom_site_fract_z
  _atom_site_occupancy
  Zn  Zn1       1.0  0.56752  0.06300  0.78733  1.0000
  Zn  Zn2       1.0  0.49548  0.43248  0.78733  1.0000
  Zn  Zn3       1.0  0.93700  0.50452  0.78733  1.0000
  Zn  Zn4       1.0  0.43248  0.49548  0.28733  1.0000
  Zn  Zn5       1.0  0.50452  0.93700  0.28733  1.0000
  Zn  Zn6       1.0  0.06300  0.56752  0.28733  1.0000
  Zn  Zn7       1.0  0.08400  0.28031  0.02462  1.0000
  Zn  Zn8       1.0  0.19631  0.91600  0.02462  1.0000
  Zn  Zn9       1.0  0.71969  0.80369  0.02462  1.0000
  Zn  Zn10      1.0  0.91600  0.19631  0.52462  1.0000
  Zn  Zn11      1.0  0.80369  0.71969  0.52462  1.0000
  Zn  Zn12      1.0  0.28031  0.08400  0.52462  1.0000
  I   I1        1.0  0.02879  0.62616  0.03145  1.0000
  I   I2        1.0  0.59737  0.97121  0.03145  1.0000
  I   I3        1.0  0.37384  0.40263  0.03145  1.0000
  I   I4        1.0  0.97121  0.59737  0.53145  1.0000
  I   I5        1.0  0.40263  0.37384  0.53145  1.0000
  I   I6        1.0  0.62616  0.02879  0.53145  1.0000
  I   I7        1.0  0.00912  0.30358  0.77177  1.0000
  I   I8        1.0  0.29446  0.99088  0.77177  1.0000
  I   I9        1.0  0.69642  0.70554  0.77177  1.0000
  I   I10       1.0  0.99088  0.29446  0.27177  1.0000
  I   I11       1.0  0.70554  0.69642  0.27177  1.0000
  I   I12       1.0  0.30358  0.00912  0.27177  1.0000
  I   I13       1.0  0.00000  0.00000  0.02212  1.0000
  I   I14       1.0  0.00000  0.00000  0.52212  1.0000
  I   I15       1.0  0.33333  0.66667  0.34679  1.0000
  I   I16       1.0  0.66667  0.33333  0.84679  1.0000
