data_image0
_chemical_formula_structural       Zn4F12
_chemical_formula_sum              "Zn4 F12"
_cell_length_a       6.71854
_cell_length_b       6.71854
_cell_length_c       4.80226
_cell_angle_alpha    90
_cell_angle_beta     90
_cell_angle_gamma    122.545

_space_group_name_H-M_alt    "P 1"
_space_group_IT_number       1

loop_
  _space_group_symop_operation_xyz
  'x, y, z'

loop_
  _atom_site_type_symbol
  _atom_site_label
  _atom_site_symmetry_multiplicity
  _atom_site_fract_x
  _atom_site_fract_y
  _atom_site_fract_z
  _atom_site_occupancy
  Zn  Zn1       1.0  0.63972  0.36028  0.00000  1.0000
  Zn  Zn2       1.0  0.36028  0.63972  0.00000  1.0000
  Zn  Zn3       1.0  0.13972  0.86028  0.50000  1.0000
  Zn  Zn4       1.0  0.86028  0.13972  0.50000  1.0000
  F   F1        1.0  0.67284  0.67284  0.00781  1.0000
  F   F2        1.0  0.17284  0.17284  0.49219  1.0000
  F   F3        1.0  0.82716  0.82716  0.50781  1.0000
  F   F4        1.0  0.41510  0.58490  0.50000  1.0000
  F   F5        1.0  0.89264  0.39264  0.75000  1.0000
  F   F6        1.0  0.91510  0.08490  0.00000  1.0000
  F   F7        1.0  0.10736  0.60736  0.25000  1.0000
  F   F8        1.0  0.32716  0.32716  0.99219  1.0000
  F   F9        1.0  0.58490  0.41510  0.50000  1.0000
  F   F10       1.0  0.08490  0.91510  0.00000  1.0000
  F   F11       1.0  0.60736  0.10736  0.25000  1.0000
  F   F12       1.0  0.39264  0.89264  0.75000  1.0000
