data_image0
_chemical_formula_structural       Zn4I8
_chemical_formula_sum              "Zn4 I8"
_cell_length_a       12.5515
_cell_length_b       12.5515
_cell_length_c       16.1942
_cell_angle_alpha    43.789
_cell_angle_beta     43.789
_cell_angle_gamma    18.4502

_space_group_name_H-M_alt    "P 1"
_space_group_IT_number       1

loop_
  _space_group_symop_operation_xyz
  'x, y, z'

loop_
  _atom_site_type_symbol
  _atom_site_label
  _atom_site_symmetry_multiplicity
  _atom_site_fract_x
  _atom_site_fract_y
  _atom_site_fract_z
  _atom_site_occupancy
  Zn  Zn1       1.0  0.68580  0.68580  0.99344  1.0000
  Zn  Zn2       1.0  0.31420  0.31420  0.00656  1.0000
  Zn  Zn3       1.0  0.32742  0.32742  0.47870  1.0000
  Zn  Zn4       1.0  0.67258  0.67258  0.52130  1.0000
  I   I1        1.0  0.09882  0.09882  0.02684  1.0000
  I   I2        1.0  0.90118  0.90118  0.97316  1.0000
  I   I3        1.0  0.89250  0.89250  0.49304  1.0000
  I   I4        1.0  0.10750  0.10750  0.50696  1.0000
  I   I5        1.0  0.67968  0.67968  0.16437  1.0000
  I   I6        1.0  0.32032  0.32032  0.83563  1.0000
  I   I7        1.0  0.17103  0.17103  0.66465  1.0000
  I   I8        1.0  0.82897  0.82897  0.33535  1.0000
