data_image0
_chemical_formula_structural       ZnI2
_chemical_formula_sum              "Zn1 I2"
_cell_length_a       7.78481
_cell_length_b       7.78481
_cell_length_c       7.78481
_cell_angle_alpha    152.463
_cell_angle_beta     152.463
_cell_angle_gamma    39.3372

_space_group_name_H-M_alt    "P 1"
_space_group_IT_number       1

loop_
  _space_group_symop_operation_xyz
  'x, y, z'

loop_
  _atom_site_type_symbol
  _atom_site_label
  _atom_site_symmetry_multiplicity
  _atom_site_fract_x
  _atom_site_fract_y
  _atom_site_fract_z
  _atom_site_occupancy
  Zn  Zn1       1.0  0.00000  0.00000  0.00000  1.0000
  I   I1        1.0  0.62174  0.62174  0.00000  1.0000
  I   I2        1.0  0.37826  0.37826  0.00000  1.0000
