data_image0
_chemical_formula_structural       Zn2F2
_chemical_formula_sum              "Zn2 F2"
_cell_length_a       6.68483
_cell_length_b       6.68483
_cell_length_c       2.80597
_cell_angle_alpha    90
_cell_angle_beta     90
_cell_angle_gamma    156.041

_space_group_name_H-M_alt    "P 1"
_space_group_IT_number       1

loop_
  _space_group_symop_operation_xyz
  'x, y, z'

loop_
  _atom_site_type_symbol
  _atom_site_label
  _atom_site_symmetry_multiplicity
  _atom_site_fract_x
  _atom_site_fract_y
  _atom_site_fract_z
  _atom_site_occupancy
  Zn  Zn1       1.0  0.17322  0.82678  0.75000  1.0000
  Zn  Zn2       1.0  0.82678  0.17322  0.25000  1.0000
  F   F1        1.0  0.40672  0.59328  0.75000  1.0000
  F   F2        1.0  0.59328  0.40672  0.25000  1.0000
