data_image0
_chemical_formula_structural       Zn6I20
_chemical_formula_sum              "Zn6 I20"
_cell_length_a       19.1908
_cell_length_b       19.1908
_cell_length_c       3.92068
_cell_angle_alpha    90
_cell_angle_beta     90
_cell_angle_gamma    120

_space_group_name_H-M_alt    "P 1"
_space_group_IT_number       1

loop_
  _space_group_symop_operation_xyz
  'x, y, z'

loop_
  _atom_site_type_symbol
  _atom_site_label
  _atom_site_symmetry_multiplicity
  _atom_site_fract_x
  _atom_site_fract_y
  _atom_site_fract_z
  _atom_site_occupancy
  Zn  Zn1       1.0  0.66484  0.73130  0.25000  1.0000
  Zn  Zn2       1.0  0.26870  0.93354  0.25000  1.0000
  Zn  Zn3       1.0  0.06646  0.33516  0.25000  1.0000
  Zn  Zn4       1.0  0.33516  0.26870  0.75000  1.0000
  Zn  Zn5       1.0  0.73130  0.06646  0.75000  1.0000
  Zn  Zn6       1.0  0.93354  0.66484  0.75000  1.0000
  I   I1        1.0  0.84726  0.12347  0.25000  1.0000
  I   I2        1.0  0.87653  0.72379  0.25000  1.0000
  I   I3        1.0  0.27621  0.15274  0.25000  1.0000
  I   I4        1.0  0.15274  0.87653  0.75000  1.0000
  I   I5        1.0  0.12347  0.27621  0.75000  1.0000
  I   I6        1.0  0.72379  0.84726  0.75000  1.0000
  I   I7        1.0  0.61879  0.01051  0.25000  1.0000
  I   I8        1.0  0.98949  0.60828  0.25000  1.0000
  I   I9        1.0  0.39172  0.38121  0.25000  1.0000
  I   I10       1.0  0.38121  0.98949  0.75000  1.0000
  I   I11       1.0  0.01051  0.39172  0.75000  1.0000
  I   I12       1.0  0.60828  0.61879  0.75000  1.0000
  I   I13       1.0  0.76171  0.27678  0.25000  1.0000
  I   I14       1.0  0.72322  0.48494  0.25000  1.0000
  I   I15       1.0  0.51506  0.23829  0.25000  1.0000
  I   I16       1.0  0.23829  0.72322  0.75000  1.0000
  I   I17       1.0  0.27678  0.51506  0.75000  1.0000
  I   I18       1.0  0.48494  0.76171  0.75000  1.0000
  I   I19       1.0  0.66667  0.33333  0.75000  1.0000
  I   I20       1.0  0.33333  0.66667  0.25000  1.0000
