data_image0
_chemical_formula_structural       Zn5F13
_chemical_formula_sum              "Zn5 F13"
_cell_length_a       11.3608
_cell_length_b       11.3608
_cell_length_c       6.14526
_cell_angle_alpha    78.0071
_cell_angle_beta     78.0071
_cell_angle_gamma    16.0795

_space_group_name_H-M_alt    "P 1"
_space_group_IT_number       1

loop_
  _space_group_symop_operation_xyz
  'x, y, z'

loop_
  _atom_site_type_symbol
  _atom_site_label
  _atom_site_symmetry_multiplicity
  _atom_site_fract_x
  _atom_site_fract_y
  _atom_site_fract_z
  _atom_site_occupancy
  Zn  Zn1       1.0  0.00000  0.00000  0.00000  1.0000
  Zn  Zn2       1.0  0.12064  0.12064  0.35309  1.0000
  Zn  Zn3       1.0  0.87936  0.87936  0.64691  1.0000
  Zn  Zn4       1.0  0.34548  0.34548  0.20010  1.0000
  Zn  Zn5       1.0  0.65452  0.65452  0.79990  1.0000
  F   F1        1.0  0.00000  0.00000  0.50000  1.0000
  F   F2        1.0  0.09449  0.09449  0.90220  1.0000
  F   F3        1.0  0.90551  0.90551  0.09780  1.0000
  F   F4        1.0  0.19230  0.19230  0.51687  1.0000
  F   F5        1.0  0.80770  0.80770  0.48313  1.0000
  F   F6        1.0  0.21533  0.21533  0.82642  1.0000
  F   F7        1.0  0.78467  0.78467  0.17358  1.0000
  F   F8        1.0  0.35044  0.35044  0.84767  1.0000
  F   F9        1.0  0.64956  0.64956  0.15233  1.0000
  F   F10       1.0  0.40183  0.40183  0.44590  1.0000
  F   F11       1.0  0.59817  0.59817  0.55410  1.0000
  F   F12       1.0  0.48551  0.48551  0.81480  1.0000
  F   F13       1.0  0.51449  0.51449  0.18520  1.0000
