data_image0
_chemical_formula_structural       Zn2Hg6
_chemical_formula_sum              "Zn2 Hg6"
_cell_length_a       6.61129
_cell_length_b       6.61129
_cell_length_c       5.22825
_cell_angle_alpha    90
_cell_angle_beta     90
_cell_angle_gamma    120

_space_group_name_H-M_alt    "P 1"
_space_group_IT_number       1

loop_
  _space_group_symop_operation_xyz
  'x, y, z'

loop_
  _atom_site_type_symbol
  _atom_site_label
  _atom_site_symmetry_multiplicity
  _atom_site_fract_x
  _atom_site_fract_y
  _atom_site_fract_z
  _atom_site_occupancy
  Zn  Zn1       1.0  0.33333  0.66667  0.75000  1.0000
  Zn  Zn2       1.0  0.66667  0.33333  0.25000  1.0000
  Hg  Hg1       1.0  0.17056  0.34112  0.25000  1.0000
  Hg  Hg2       1.0  0.65888  0.82944  0.25000  1.0000
  Hg  Hg3       1.0  0.17056  0.82944  0.25000  1.0000
  Hg  Hg4       1.0  0.82944  0.65888  0.75000  1.0000
  Hg  Hg5       1.0  0.34112  0.17056  0.75000  1.0000
  Hg  Hg6       1.0  0.82944  0.17056  0.75000  1.0000
