data_image0
_chemical_formula_structural       Zn4Hg8
_chemical_formula_sum              "Zn4 Hg8"
_cell_length_a       9.74263
_cell_length_b       9.74263
_cell_length_c       7.47924
_cell_angle_alpha    90
_cell_angle_beta     90
_cell_angle_gamma    156.784

_space_group_name_H-M_alt    "P 1"
_space_group_IT_number       1

loop_
  _space_group_symop_operation_xyz
  'x, y, z'

loop_
  _atom_site_type_symbol
  _atom_site_label
  _atom_site_symmetry_multiplicity
  _atom_site_fract_x
  _atom_site_fract_y
  _atom_site_fract_z
  _atom_site_occupancy
  Zn  Zn1       1.0  0.70252  0.29748  0.71878  1.0000
  Zn  Zn2       1.0  0.29748  0.70252  0.21878  1.0000
  Zn  Zn3       1.0  0.94594  0.05406  0.70624  1.0000
  Zn  Zn4       1.0  0.05406  0.94594  0.20624  1.0000
  Hg  Hg1       1.0  0.09540  0.90460  0.81956  1.0000
  Hg  Hg2       1.0  0.90460  0.09540  0.31956  1.0000
  Hg  Hg3       1.0  0.17386  0.82614  0.44140  1.0000
  Hg  Hg4       1.0  0.82614  0.17386  0.94140  1.0000
  Hg  Hg5       1.0  0.67413  0.32587  0.10943  1.0000
  Hg  Hg6       1.0  0.32587  0.67413  0.60943  1.0000
  Hg  Hg7       1.0  0.52491  0.47509  0.49259  1.0000
  Hg  Hg8       1.0  0.47509  0.52491  0.99259  1.0000
