data_image0
_chemical_formula_structural       Zn4I8
_chemical_formula_sum              "Zn4 I8"
_cell_length_a       17.3029
_cell_length_b       17.3029
_cell_length_c       7.98814
_cell_angle_alpha    90
_cell_angle_beta     90
_cell_angle_gamma    165.912

_space_group_name_H-M_alt    "P 1"
_space_group_IT_number       1

loop_
  _space_group_symop_operation_xyz
  'x, y, z'

loop_
  _atom_site_type_symbol
  _atom_site_label
  _atom_site_symmetry_multiplicity
  _atom_site_fract_x
  _atom_site_fract_y
  _atom_site_fract_z
  _atom_site_occupancy
  Zn  Zn1       1.0  0.56065  0.43935  0.82174  1.0000
  Zn  Zn2       1.0  0.43935  0.56065  0.32174  1.0000
  Zn  Zn3       1.0  0.17765  0.82235  0.23912  1.0000
  Zn  Zn4       1.0  0.82235  0.17765  0.73912  1.0000
  I   I1        1.0  0.93835  0.06165  0.12565  1.0000
  I   I2        1.0  0.06165  0.93835  0.62565  1.0000
  I   I3        1.0  0.18504  0.81496  0.93287  1.0000
  I   I4        1.0  0.81496  0.18504  0.43287  1.0000
  I   I5        1.0  0.32321  0.67679  0.93589  1.0000
  I   I6        1.0  0.67679  0.32321  0.43589  1.0000
  I   I7        1.0  0.56007  0.43993  0.13043  1.0000
  I   I8        1.0  0.43993  0.56007  0.63043  1.0000
