data_image0
_chemical_formula_structural       Zn4N12
_chemical_formula_sum              "Zn4 N12"
_cell_length_a       7.82204
_cell_length_b       7.82204
_cell_length_c       5.55651
_cell_angle_alpha    90
_cell_angle_beta     90
_cell_angle_gamma    137.712

_space_group_name_H-M_alt    "P 1"
_space_group_IT_number       1

loop_
  _space_group_symop_operation_xyz
  'x, y, z'

loop_
  _atom_site_type_symbol
  _atom_site_label
  _atom_site_symmetry_multiplicity
  _atom_site_fract_x
  _atom_site_fract_y
  _atom_site_fract_z
  _atom_site_occupancy
  Zn  Zn1       1.0  0.72404  0.27596  0.00000  1.0000
  Zn  Zn2       1.0  0.27596  0.72404  0.00000  1.0000
  Zn  Zn3       1.0  0.22404  0.77596  0.50000  1.0000
  Zn  Zn4       1.0  0.77596  0.22404  0.50000  1.0000
  N   N1        1.0  0.57267  0.57267  0.06791  1.0000
  N   N2        1.0  0.07267  0.07267  0.43209  1.0000
  N   N3        1.0  0.92733  0.92733  0.56791  1.0000
  N   N4        1.0  0.46178  0.53822  0.50000  1.0000
  N   N5        1.0  0.99993  0.49993  0.75000  1.0000
  N   N6        1.0  0.96178  0.03822  0.00000  1.0000
  N   N7        1.0  0.00007  0.50007  0.25000  1.0000
  N   N8        1.0  0.42733  0.42733  0.93209  1.0000
  N   N9        1.0  0.53822  0.46178  0.50000  1.0000
  N   N10       1.0  0.03822  0.96178  0.00000  1.0000
  N   N11       1.0  0.50007  0.00007  0.25000  1.0000
  N   N12       1.0  0.49993  0.99993  0.75000  1.0000
