data_image0
_chemical_formula_structural       Zn4I18
_chemical_formula_sum              "Zn4 I18"
_cell_length_a       10.4799
_cell_length_b       10.4799
_cell_length_c       15.9016
_cell_angle_alpha    56.961
_cell_angle_beta     56.961
_cell_angle_gamma    77.5462

_space_group_name_H-M_alt    "P 1"
_space_group_IT_number       1

loop_
  _space_group_symop_operation_xyz
  'x, y, z'

loop_
  _atom_site_type_symbol
  _atom_site_label
  _atom_site_symmetry_multiplicity
  _atom_site_fract_x
  _atom_site_fract_y
  _atom_site_fract_z
  _atom_site_occupancy
  Zn  Zn1       1.0  0.54187  0.86531  0.10374  1.0000
  Zn  Zn2       1.0  0.13469  0.45813  0.39626  1.0000
  Zn  Zn3       1.0  0.45813  0.13469  0.89626  1.0000
  Zn  Zn4       1.0  0.86531  0.54187  0.60374  1.0000
  I   I1        1.0  0.42669  0.76378  0.56271  1.0000
  I   I2        1.0  0.23622  0.57331  0.93729  1.0000
  I   I3        1.0  0.71145  0.99101  0.53892  1.0000
  I   I4        1.0  0.00899  0.28855  0.96108  1.0000
  I   I5        1.0  0.28855  0.00899  0.46108  1.0000
  I   I6        1.0  0.99101  0.71145  0.03892  1.0000
  I   I7        1.0  0.05861  0.33403  0.61812  1.0000
  I   I8        1.0  0.66597  0.94139  0.88188  1.0000
  I   I9        1.0  0.94139  0.66597  0.38188  1.0000
  I   I10       1.0  0.33403  0.05861  0.11812  1.0000
  I   I11       1.0  0.11291  0.25942  0.35266  1.0000
  I   I12       1.0  0.74058  0.88709  0.14734  1.0000
  I   I13       1.0  0.88709  0.74058  0.64734  1.0000
  I   I14       1.0  0.25942  0.11291  0.85266  1.0000
  I   I15       1.0  0.76378  0.42669  0.06271  1.0000
  I   I16       1.0  0.57331  0.23622  0.43729  1.0000
  I   I17       1.0  0.43412  0.56588  0.25000  1.0000
  I   I18       1.0  0.56588  0.43412  0.75000  1.0000
