data_image0
_chemical_formula_structural       ZnN4
_chemical_formula_sum              "Zn1 N4"
_cell_length_a       5.51668
_cell_length_b       5.51668
_cell_length_c       5.51668
_cell_angle_alpha    92.3112
_cell_angle_beta     92.3112
_cell_angle_gamma    156.831

_space_group_name_H-M_alt    "P 1"
_space_group_IT_number       1

loop_
  _space_group_symop_operation_xyz
  'x, y, z'

loop_
  _atom_site_type_symbol
  _atom_site_label
  _atom_site_symmetry_multiplicity
  _atom_site_fract_x
  _atom_site_fract_y
  _atom_site_fract_z
  _atom_site_occupancy
  Zn  Zn1       1.0  0.00000  0.00000  0.00000  1.0000
  N   N1        1.0  0.70685  0.27006  0.97691  1.0000
  N   N2        1.0  0.29315  0.72994  0.02309  1.0000
  N   N3        1.0  0.72994  0.70685  0.43679  1.0000
  N   N4        1.0  0.27006  0.29315  0.56321  1.0000
