data_image0
_chemical_formula_structural       Zn4N4
_chemical_formula_sum              "Zn4 N4"
_cell_length_a       4.31423
_cell_length_b       4.31423
_cell_length_c       4.31423
_cell_angle_alpha    90
_cell_angle_beta     90
_cell_angle_gamma    90

_space_group_name_H-M_alt    "P 1"
_space_group_IT_number       1

loop_
  _space_group_symop_operation_xyz
  'x, y, z'

loop_
  _atom_site_type_symbol
  _atom_site_label
  _atom_site_symmetry_multiplicity
  _atom_site_fract_x
  _atom_site_fract_y
  _atom_site_fract_z
  _atom_site_occupancy
  Zn  Zn1       1.0  0.75046  0.74954  0.25046  1.0000
  Zn  Zn2       1.0  0.74954  0.25046  0.75046  1.0000
  Zn  Zn3       1.0  0.25046  0.75046  0.74954  1.0000
  Zn  Zn4       1.0  0.24954  0.24954  0.24954  1.0000
  N   N1        1.0  0.24953  0.25047  0.74953  1.0000
  N   N2        1.0  0.25047  0.74953  0.24953  1.0000
  N   N3        1.0  0.74953  0.24953  0.25047  1.0000
  N   N4        1.0  0.75047  0.75047  0.75047  1.0000
