data_image0
_chemical_formula_structural       Zn4I12
_chemical_formula_sum              "Zn4 I12"
_cell_length_a       8.61638
_cell_length_b       8.61638
_cell_length_c       12.0756
_cell_angle_alpha    90
_cell_angle_beta     90
_cell_angle_gamma    89.4839

_space_group_name_H-M_alt    "P 1"
_space_group_IT_number       1

loop_
  _space_group_symop_operation_xyz
  'x, y, z'

loop_
  _atom_site_type_symbol
  _atom_site_label
  _atom_site_symmetry_multiplicity
  _atom_site_fract_x
  _atom_site_fract_y
  _atom_site_fract_z
  _atom_site_occupancy
  Zn  Zn1       1.0  0.63583  0.36417  0.00000  1.0000
  Zn  Zn2       1.0  0.36417  0.63583  0.00000  1.0000
  Zn  Zn3       1.0  0.13583  0.86417  0.50000  1.0000
  Zn  Zn4       1.0  0.86417  0.13583  0.50000  1.0000
  I   I1        1.0  0.66597  0.66597  0.00559  1.0000
  I   I2        1.0  0.16597  0.16597  0.49441  1.0000
  I   I3        1.0  0.83403  0.83403  0.50559  1.0000
  I   I4        1.0  0.34426  0.65574  0.50000  1.0000
  I   I5        1.0  0.76630  0.26630  0.75000  1.0000
  I   I6        1.0  0.84426  0.15574  0.00000  1.0000
  I   I7        1.0  0.23370  0.73370  0.25000  1.0000
  I   I8        1.0  0.33403  0.33403  0.99441  1.0000
  I   I9        1.0  0.65574  0.34426  0.50000  1.0000
  I   I10       1.0  0.15574  0.84426  0.00000  1.0000
  I   I11       1.0  0.73370  0.23370  0.25000  1.0000
  I   I12       1.0  0.26630  0.76630  0.75000  1.0000
