data_image0
_chemical_formula_structural       Zn9I5
_chemical_formula_sum              "Zn9 I5"
_cell_length_a       6.81572
_cell_length_b       6.81572
_cell_length_c       11.7404
_cell_angle_alpha    72.3607
_cell_angle_beta     72.3607
_cell_angle_gamma    55.5858

_space_group_name_H-M_alt    "P 1"
_space_group_IT_number       1

loop_
  _space_group_symop_operation_xyz
  'x, y, z'

loop_
  _atom_site_type_symbol
  _atom_site_label
  _atom_site_symmetry_multiplicity
  _atom_site_fract_x
  _atom_site_fract_y
  _atom_site_fract_z
  _atom_site_occupancy
  Zn  Zn1       1.0  0.25677  0.25761  0.32177  1.0000
  Zn  Zn2       1.0  0.74239  0.74323  0.67823  1.0000
  Zn  Zn3       1.0  0.18995  0.00784  0.02381  1.0000
  Zn  Zn4       1.0  0.17790  0.64801  0.17839  1.0000
  Zn  Zn5       1.0  0.35199  0.82210  0.82161  1.0000
  Zn  Zn6       1.0  0.58638  0.41362  0.50000  1.0000
  Zn  Zn7       1.0  0.99216  0.81005  0.97619  1.0000
  Zn  Zn8       1.0  0.15724  0.34648  0.08999  1.0000
  Zn  Zn9       1.0  0.65352  0.84276  0.91001  1.0000
  I   I1        1.0  0.98250  0.29289  0.56821  1.0000
  I   I2        1.0  0.65680  0.34320  0.00000  1.0000
  I   I3        1.0  0.70711  0.01750  0.43179  1.0000
  I   I4        1.0  0.26128  0.53396  0.69688  1.0000
  I   I5        1.0  0.46604  0.73872  0.30312  1.0000
