data_image0
_chemical_formula_structural       Zn2N4
_chemical_formula_sum              "Zn2 N4"
_cell_length_a       2.97307
_cell_length_b       4.17305
_cell_length_c       4.9446
_cell_angle_alpha    90
_cell_angle_beta     90
_cell_angle_gamma    90

_space_group_name_H-M_alt    "P 1"
_space_group_IT_number       1

loop_
  _space_group_symop_operation_xyz
  'x, y, z'

loop_
  _atom_site_type_symbol
  _atom_site_label
  _atom_site_symmetry_multiplicity
  _atom_site_fract_x
  _atom_site_fract_y
  _atom_site_fract_z
  _atom_site_occupancy
  Zn  Zn1       1.0  0.50000  0.50000  0.50000  1.0000
  Zn  Zn2       1.0  0.00000  0.00000  0.00000  1.0000
  N   N1        1.0  0.50000  0.38581  0.91875  1.0000
  N   N2        1.0  0.50000  0.61419  0.08125  1.0000
  N   N3        1.0  0.00000  0.11419  0.41875  1.0000
  N   N4        1.0  0.00000  0.88581  0.58125  1.0000
