data_image0
_chemical_formula_structural       I10Zn6
_chemical_formula_sum              "I10 Zn6"
_cell_length_a       10.2852
_cell_length_b       10.2852
_cell_length_c       10.2852
_cell_angle_alpha    130.189
_cell_angle_beta     130.189
_cell_angle_gamma    73.1052

_space_group_name_H-M_alt    "P 1"
_space_group_IT_number       1

loop_
  _space_group_symop_operation_xyz
  'x, y, z'

loop_
  _atom_site_type_symbol
  _atom_site_label
  _atom_site_symmetry_multiplicity
  _atom_site_fract_x
  _atom_site_fract_y
  _atom_site_fract_z
  _atom_site_occupancy
  I   I1        1.0  0.52961  0.66919  0.50000  1.0000
  I   I2        1.0  0.47039  0.33081  0.50000  1.0000
  I   I3        1.0  0.50000  0.50000  0.00000  1.0000
  I   I4        1.0  0.00000  0.00000  0.00000  1.0000
  I   I5        1.0  0.16919  0.02961  0.50000  1.0000
  I   I6        1.0  0.02961  0.52961  0.86042  1.0000
  I   I7        1.0  0.66919  0.16919  0.13958  1.0000
  I   I8        1.0  0.33081  0.83081  0.86042  1.0000
  I   I9        1.0  0.97039  0.47039  0.13958  1.0000
  I   I10       1.0  0.83081  0.97039  0.50000  1.0000
  Zn  Zn1       1.0  0.70437  0.79563  0.50000  1.0000
  Zn  Zn2       1.0  0.79563  0.29563  0.09127  1.0000
  Zn  Zn3       1.0  0.20437  0.70437  0.90873  1.0000
  Zn  Zn4       1.0  0.29563  0.20437  0.50000  1.0000
  Zn  Zn5       1.0  0.25000  0.25000  0.00000  1.0000
  Zn  Zn6       1.0  0.75000  0.75000  0.00000  1.0000
