data_image0
_chemical_formula_structural       Zn9S6
_chemical_formula_sum              "Zn9 S6"
_cell_length_a       13.5467
_cell_length_b       13.5467
_cell_length_c       8.9829
_cell_angle_alpha    49.0996
_cell_angle_beta     49.0996
_cell_angle_gamma    16.5483

_space_group_name_H-M_alt    "P 1"
_space_group_IT_number       1

loop_
  _space_group_symop_operation_xyz
  'x, y, z'

loop_
  _atom_site_type_symbol
  _atom_site_label
  _atom_site_symmetry_multiplicity
  _atom_site_fract_x
  _atom_site_fract_y
  _atom_site_fract_z
  _atom_site_occupancy
  Zn  Zn1       1.0  0.90242  0.90242  0.17088  1.0000
  Zn  Zn2       1.0  0.09758  0.09758  0.82912  1.0000
  Zn  Zn3       1.0  0.21805  0.21805  0.94730  1.0000
  Zn  Zn4       1.0  0.78195  0.78195  0.05270  1.0000
  Zn  Zn5       1.0  0.11012  0.11012  0.53357  1.0000
  Zn  Zn6       1.0  0.88988  0.88988  0.46643  1.0000
  Zn  Zn7       1.0  0.55791  0.55791  0.26752  1.0000
  Zn  Zn8       1.0  0.44209  0.44209  0.73248  1.0000
  Zn  Zn9       1.0  0.50000  0.50000  0.00000  1.0000
  S   S1        1.0  0.44110  0.44110  0.46944  1.0000
  S   S2        1.0  0.55890  0.55890  0.53056  1.0000
  S   S3        1.0  0.21975  0.21975  0.21584  1.0000
  S   S4        1.0  0.78025  0.78025  0.78416  1.0000
  S   S5        1.0  0.10909  0.10909  0.06860  1.0000
  S   S6        1.0  0.89091  0.89091  0.93140  1.0000
