data_image0
_chemical_formula_structural       N3Zn3
_chemical_formula_sum              "N3 Zn3"
_cell_length_a       3.05388
_cell_length_b       3.05388
_cell_length_c       7.4571
_cell_angle_alpha    90
_cell_angle_beta     90
_cell_angle_gamma    120

_space_group_name_H-M_alt    "P 1"
_space_group_IT_number       1

loop_
  _space_group_symop_operation_xyz
  'x, y, z'

loop_
  _atom_site_type_symbol
  _atom_site_label
  _atom_site_symmetry_multiplicity
  _atom_site_fract_x
  _atom_site_fract_y
  _atom_site_fract_z
  _atom_site_occupancy
  N   N1        1.0  0.33040  0.33040  0.00000  1.0000
  N   N2        1.0  0.00000  0.66960  0.66667  1.0000
  N   N3        1.0  0.66960  0.00000  0.33333  1.0000
  Zn  Zn1       1.0  0.33449  0.33449  0.50000  1.0000
  Zn  Zn2       1.0  1.00000  0.66551  0.16667  1.0000
  Zn  Zn3       1.0  0.66551  1.00000  0.83333  1.0000
