data_image0
_chemical_formula_structural       Zn3N4
_chemical_formula_sum              "Zn3 N4"
_cell_length_a       5.45509
_cell_length_b       5.45509
_cell_length_c       5.37903
_cell_angle_alpha    62.3623
_cell_angle_beta     62.3623
_cell_angle_gamma    32.8538

_space_group_name_H-M_alt    "P 1"
_space_group_IT_number       1

loop_
  _space_group_symop_operation_xyz
  'x, y, z'

loop_
  _atom_site_type_symbol
  _atom_site_label
  _atom_site_symmetry_multiplicity
  _atom_site_fract_x
  _atom_site_fract_y
  _atom_site_fract_z
  _atom_site_occupancy
  Zn  Zn1       1.0  0.20584  0.20584  0.79867  1.0000
  Zn  Zn2       1.0  0.79416  0.79416  0.20133  1.0000
  Zn  Zn3       1.0  0.50000  0.50000  0.50000  1.0000
  N   N1        1.0  0.85569  0.85569  0.49930  1.0000
  N   N2        1.0  0.14431  0.14431  0.50070  1.0000
  N   N3        1.0  0.37278  0.37278  0.92710  1.0000
  N   N4        1.0  0.62722  0.62722  0.07290  1.0000
