data_image0
_chemical_formula_structural       N8Zn4
_chemical_formula_sum              "N8 Zn4"
_cell_length_a       4.19431
_cell_length_b       5.93709
_cell_length_c       5.76525
_cell_angle_alpha    59.1615
_cell_angle_beta     90
_cell_angle_gamma    90

_space_group_name_H-M_alt    "P 1"
_space_group_IT_number       1

loop_
  _space_group_symop_operation_xyz
  'x, y, z'

loop_
  _atom_site_type_symbol
  _atom_site_label
  _atom_site_symmetry_multiplicity
  _atom_site_fract_x
  _atom_site_fract_y
  _atom_site_fract_z
  _atom_site_occupancy
  N   N1        1.0  0.11305  0.04047  0.41856  1.0000
  N   N2        1.0  0.61305  0.95953  0.08144  1.0000
  N   N3        1.0  0.88695  0.95953  0.58144  1.0000
  N   N4        1.0  0.38695  0.04047  0.91856  1.0000
  N   N5        1.0  0.88645  0.45949  0.58132  1.0000
  N   N6        1.0  0.38645  0.54051  0.91868  1.0000
  N   N7        1.0  0.11355  0.54051  0.41868  1.0000
  N   N8        1.0  0.61355  0.45949  0.08132  1.0000
  Zn  Zn1       1.0  0.00011  0.25104  0.99901  1.0000
  Zn  Zn2       1.0  0.50011  0.74896  0.50099  1.0000
  Zn  Zn3       1.0  0.99989  0.74896  0.00099  1.0000
  Zn  Zn4       1.0  0.49989  0.25104  0.49901  1.0000
