data_image0
_chemical_formula_structural       Zn3N6
_chemical_formula_sum              "Zn3 N6"
_cell_length_a       8.05062
_cell_length_b       8.05062
_cell_length_c       2.2374
_cell_angle_alpha    90
_cell_angle_beta     90
_cell_angle_gamma    120

_space_group_name_H-M_alt    "P 1"
_space_group_IT_number       1

loop_
  _space_group_symop_operation_xyz
  'x, y, z'

loop_
  _atom_site_type_symbol
  _atom_site_label
  _atom_site_symmetry_multiplicity
  _atom_site_fract_x
  _atom_site_fract_y
  _atom_site_fract_z
  _atom_site_occupancy
  Zn  Zn1       1.0  0.66667  0.33333  0.00000  1.0000
  Zn  Zn2       1.0  0.33333  0.66667  0.00000  1.0000
  Zn  Zn3       1.0  0.00000  0.00000  0.50000  1.0000
  N   N1        1.0  0.39756  0.00000  0.50000  1.0000
  N   N2        1.0  0.60244  0.60244  0.50000  1.0000
  N   N3        1.0  0.00000  0.39756  0.50000  1.0000
  N   N4        1.0  0.00000  0.30276  0.00000  1.0000
  N   N5        1.0  0.69724  0.69724  0.00000  1.0000
  N   N6        1.0  0.30276  0.00000  0.00000  1.0000
