data_image0
_chemical_formula_structural       ZnN2
_chemical_formula_sum              "Zn1 N2"
_cell_length_a       3.13499
_cell_length_b       3.13499
_cell_length_c       4.14884
_cell_angle_alpha    67.2241
_cell_angle_beta     67.2241
_cell_angle_gamma    59.4494

_space_group_name_H-M_alt    "P 1"
_space_group_IT_number       1

loop_
  _space_group_symop_operation_xyz
  'x, y, z'

loop_
  _atom_site_type_symbol
  _atom_site_label
  _atom_site_symmetry_multiplicity
  _atom_site_fract_x
  _atom_site_fract_y
  _atom_site_fract_z
  _atom_site_occupancy
  Zn  Zn1       1.0  0.66623  0.33377  0.50000  1.0000
  N   N1        1.0  0.22389  0.89012  0.83265  1.0000
  N   N2        1.0  0.10988  0.77611  0.16735  1.0000
