data_image0
_chemical_formula_structural       Zn6N20
_chemical_formula_sum              "Zn6 N20"
_cell_length_a       8.46576
_cell_length_b       8.46576
_cell_length_c       4.58639
_cell_angle_alpha    90
_cell_angle_beta     90
_cell_angle_gamma    120

_space_group_name_H-M_alt    "P 1"
_space_group_IT_number       1

loop_
  _space_group_symop_operation_xyz
  'x, y, z'

loop_
  _atom_site_type_symbol
  _atom_site_label
  _atom_site_symmetry_multiplicity
  _atom_site_fract_x
  _atom_site_fract_y
  _atom_site_fract_z
  _atom_site_occupancy
  Zn  Zn1       1.0  0.59188  0.79631  0.25000  1.0000
  Zn  Zn2       1.0  0.20369  0.79558  0.25000  1.0000
  Zn  Zn3       1.0  0.20442  0.40812  0.25000  1.0000
  Zn  Zn4       1.0  0.40812  0.20369  0.75000  1.0000
  Zn  Zn5       1.0  0.79631  0.20442  0.75000  1.0000
  Zn  Zn6       1.0  0.79558  0.59188  0.75000  1.0000
  N   N1        1.0  0.04266  0.10877  0.25000  1.0000
  N   N2        1.0  0.89123  0.93389  0.25000  1.0000
  N   N3        1.0  0.06611  0.95734  0.25000  1.0000
  N   N4        1.0  0.95734  0.89123  0.75000  1.0000
  N   N5        1.0  0.10877  0.06611  0.75000  1.0000
  N   N6        1.0  0.93389  0.04266  0.75000  1.0000
  N   N7        1.0  0.61132  0.04318  0.25000  1.0000
  N   N8        1.0  0.95682  0.56813  0.25000  1.0000
  N   N9        1.0  0.43187  0.38868  0.25000  1.0000
  N   N10       1.0  0.38868  0.95682  0.75000  1.0000
  N   N11       1.0  0.04318  0.43187  0.75000  1.0000
  N   N12       1.0  0.56813  0.61132  0.75000  1.0000
  N   N13       1.0  0.73799  0.18974  0.25000  1.0000
  N   N14       1.0  0.81026  0.54826  0.25000  1.0000
  N   N15       1.0  0.45174  0.26201  0.25000  1.0000
  N   N16       1.0  0.26201  0.81026  0.75000  1.0000
  N   N17       1.0  0.18974  0.45174  0.75000  1.0000
  N   N18       1.0  0.54826  0.73799  0.75000  1.0000
  N   N19       1.0  0.66667  0.33333  0.75000  1.0000
  N   N20       1.0  0.33333  0.66667  0.25000  1.0000
