data_image0
_chemical_formula_structural       Zn4N8
_chemical_formula_sum              "Zn4 N8"
_cell_length_a       9.69777
_cell_length_b       9.69777
_cell_length_c       5.59188
_cell_angle_alpha    90
_cell_angle_beta     90
_cell_angle_gamma    159.618

_space_group_name_H-M_alt    "P 1"
_space_group_IT_number       1

loop_
  _space_group_symop_operation_xyz
  'x, y, z'

loop_
  _atom_site_type_symbol
  _atom_site_label
  _atom_site_symmetry_multiplicity
  _atom_site_fract_x
  _atom_site_fract_y
  _atom_site_fract_z
  _atom_site_occupancy
  Zn  Zn1       1.0  0.05610  0.94390  0.23618  1.0000
  Zn  Zn2       1.0  0.94390  0.05610  0.73618  1.0000
  Zn  Zn3       1.0  0.56902  0.43098  0.73121  1.0000
  Zn  Zn4       1.0  0.43098  0.56902  0.23121  1.0000
  N   N1        1.0  0.71725  0.28275  0.01446  1.0000
  N   N2        1.0  0.28275  0.71725  0.51446  1.0000
  N   N3        1.0  0.42090  0.57910  0.88315  1.0000
  N   N4        1.0  0.57910  0.42090  0.38315  1.0000
  N   N5        1.0  0.22654  0.77346  0.56860  1.0000
  N   N6        1.0  0.77346  0.22654  0.06860  1.0000
  N   N7        1.0  0.94663  0.05337  0.38070  1.0000
  N   N8        1.0  0.05337  0.94663  0.88070  1.0000
