data_image0
_chemical_formula_structural       ZnS4
_chemical_formula_sum              "Zn1 S4"
_cell_length_a       6.15188
_cell_length_b       6.15188
_cell_length_c       6.15188
_cell_angle_alpha    94.8558
_cell_angle_beta     94.8558
_cell_angle_gamma    146.171

_space_group_name_H-M_alt    "P 1"
_space_group_IT_number       1

loop_
  _space_group_symop_operation_xyz
  'x, y, z'

loop_
  _atom_site_type_symbol
  _atom_site_label
  _atom_site_symmetry_multiplicity
  _atom_site_fract_x
  _atom_site_fract_y
  _atom_site_fract_z
  _atom_site_occupancy
  Zn  Zn1       1.0  0.00000  0.00000  0.00000  1.0000
  S   S1        1.0  0.67999  0.74793  0.42792  1.0000
  S   S2        1.0  0.32001  0.25207  0.57208  1.0000
  S   S3        1.0  0.25207  0.67999  0.93206  1.0000
  S   S4        1.0  0.74793  0.32001  0.06794  1.0000
