data_image0
_chemical_formula_structural       Zn9N5
_chemical_formula_sum              "Zn9 N5"
_cell_length_a       6.2414
_cell_length_b       6.2414
_cell_length_c       10.1225
_cell_angle_alpha    47.5129
_cell_angle_beta     47.5129
_cell_angle_gamma    46.9054

_space_group_name_H-M_alt    "P 1"
_space_group_IT_number       1

loop_
  _space_group_symop_operation_xyz
  'x, y, z'

loop_
  _atom_site_type_symbol
  _atom_site_label
  _atom_site_symmetry_multiplicity
  _atom_site_fract_x
  _atom_site_fract_y
  _atom_site_fract_z
  _atom_site_occupancy
  Zn  Zn1       1.0  0.46043  0.14512  0.20085  1.0000
  Zn  Zn2       1.0  0.85488  0.53957  0.79915  1.0000
  Zn  Zn3       1.0  0.23746  0.93357  0.07013  1.0000
  Zn  Zn4       1.0  0.96805  0.52758  0.42515  1.0000
  Zn  Zn5       1.0  0.47242  0.03195  0.57485  1.0000
  Zn  Zn6       1.0  0.93500  0.06500  0.50000  1.0000
  Zn  Zn7       1.0  0.06643  0.76254  0.92987  1.0000
  Zn  Zn8       1.0  0.74974  0.41228  0.18412  1.0000
  Zn  Zn9       1.0  0.58772  0.25026  0.81588  1.0000
  N   N1        1.0  0.00424  0.26118  0.68437  1.0000
  N   N2        1.0  0.39360  0.60640  0.00000  1.0000
  N   N3        1.0  0.73882  0.99576  0.31563  1.0000
  N   N4        1.0  0.13721  0.42400  0.88733  1.0000
  N   N5        1.0  0.57600  0.86279  0.11267  1.0000
