data_image0
_chemical_formula_structural       Zn6I16
_chemical_formula_sum              "Zn6 I16"
_cell_length_a       8.23092
_cell_length_b       7.22302
_cell_length_c       19.0874
_cell_angle_alpha    54.9404
_cell_angle_beta     90
_cell_angle_gamma    90

_space_group_name_H-M_alt    "P 1"
_space_group_IT_number       1

loop_
  _space_group_symop_operation_xyz
  'x, y, z'

loop_
  _atom_site_type_symbol
  _atom_site_label
  _atom_site_symmetry_multiplicity
  _atom_site_fract_x
  _atom_site_fract_y
  _atom_site_fract_z
  _atom_site_occupancy
  Zn  Zn1       1.0  0.36688  0.75131  0.71094  1.0000
  Zn  Zn2       1.0  0.63312  0.24869  0.28906  1.0000
  Zn  Zn3       1.0  0.50000  0.00000  0.00000  1.0000
  Zn  Zn4       1.0  0.86688  0.24869  0.78906  1.0000
  Zn  Zn5       1.0  0.13312  0.75131  0.21094  1.0000
  Zn  Zn6       1.0  0.00000  0.00000  0.50000  1.0000
  I   I1        1.0  0.72080  0.64004  0.16189  1.0000
  I   I2        1.0  0.48002  0.08611  0.70335  1.0000
  I   I3        1.0  0.49988  0.70937  0.91904  1.0000
  I   I4        1.0  0.72084  0.19940  0.43336  1.0000
  I   I5        1.0  0.77916  0.19940  0.93336  1.0000
  I   I6        1.0  0.01998  0.08611  0.20335  1.0000
  I   I7        1.0  0.00012  0.70937  0.41904  1.0000
  I   I8        1.0  0.77920  0.64004  0.66189  1.0000
  I   I9        1.0  0.98002  0.91389  0.79665  1.0000
  I   I10       1.0  0.22084  0.80060  0.06664  1.0000
  I   I11       1.0  0.99988  0.29063  0.58096  1.0000
  I   I12       1.0  0.22080  0.35996  0.33811  1.0000
  I   I13       1.0  0.50012  0.29063  0.08096  1.0000
  I   I14       1.0  0.27920  0.35996  0.83811  1.0000
  I   I15       1.0  0.51998  0.91389  0.29665  1.0000
  I   I16       1.0  0.27916  0.80060  0.56664  1.0000
