data_image0
_chemical_formula_structural       N4Zn4
_chemical_formula_sum              "N4 Zn4"
_cell_length_a       4.31494
_cell_length_b       4.31494
_cell_length_c       4.31494
_cell_angle_alpha    90
_cell_angle_beta     90
_cell_angle_gamma    90

_space_group_name_H-M_alt    "P 1"
_space_group_IT_number       1

loop_
  _space_group_symop_operation_xyz
  'x, y, z'

loop_
  _atom_site_type_symbol
  _atom_site_label
  _atom_site_symmetry_multiplicity
  _atom_site_fract_x
  _atom_site_fract_y
  _atom_site_fract_z
  _atom_site_occupancy
  N   N1        1.0  0.75057  0.74943  0.25057  1.0000
  N   N2        1.0  0.74943  0.25057  0.75057  1.0000
  N   N3        1.0  0.25057  0.75057  0.74943  1.0000
  N   N4        1.0  0.24943  0.24943  0.24943  1.0000
  Zn  Zn1       1.0  0.24925  0.25075  0.74925  1.0000
  Zn  Zn2       1.0  0.25075  0.74925  0.24925  1.0000
  Zn  Zn3       1.0  0.74925  0.24925  0.25075  1.0000
  Zn  Zn4       1.0  0.75075  0.75075  0.75075  1.0000
