data_image0
_chemical_formula_structural       Zn8I16
_chemical_formula_sum              "Zn8 I16"
_cell_length_a       10.391
_cell_length_b       10.391
_cell_length_c       17.7413
_cell_angle_alpha    90
_cell_angle_beta     90
_cell_angle_gamma    126.147

_space_group_name_H-M_alt    "P 1"
_space_group_IT_number       1

loop_
  _space_group_symop_operation_xyz
  'x, y, z'

loop_
  _atom_site_type_symbol
  _atom_site_label
  _atom_site_symmetry_multiplicity
  _atom_site_fract_x
  _atom_site_fract_y
  _atom_site_fract_z
  _atom_site_occupancy
  Zn  Zn1       1.0  0.02611  0.02611  0.77784  1.0000
  Zn  Zn2       1.0  0.47389  0.47389  0.27784  1.0000
  Zn  Zn3       1.0  0.52611  0.52611  0.72216  1.0000
  Zn  Zn4       1.0  0.97389  0.97389  0.22216  1.0000
  Zn  Zn5       1.0  0.36797  0.63203  0.50000  1.0000
  Zn  Zn6       1.0  0.13203  0.86797  0.00000  1.0000
  Zn  Zn7       1.0  0.63203  0.36797  0.50000  1.0000
  Zn  Zn8       1.0  0.86797  0.13203  0.00000  1.0000
  I   I1        1.0  0.33966  0.59955  0.27882  1.0000
  I   I2        1.0  0.16034  0.90045  0.77882  1.0000
  I   I3        1.0  0.09955  0.83966  0.22118  1.0000
  I   I4        1.0  0.40045  0.66034  0.72118  1.0000
  I   I5        1.0  0.66034  0.40045  0.72118  1.0000
  I   I6        1.0  0.83966  0.09955  0.22118  1.0000
  I   I7        1.0  0.90045  0.16034  0.77882  1.0000
  I   I8        1.0  0.59955  0.33966  0.27882  1.0000
  I   I9        1.0  0.12929  0.38233  0.01481  1.0000
  I   I10       1.0  0.37071  0.11767  0.51481  1.0000
  I   I11       1.0  0.88233  0.62929  0.48519  1.0000
  I   I12       1.0  0.61767  0.87071  0.98519  1.0000
  I   I13       1.0  0.87071  0.61767  0.98519  1.0000
  I   I14       1.0  0.62929  0.88233  0.48519  1.0000
  I   I15       1.0  0.11767  0.37071  0.51481  1.0000
  I   I16       1.0  0.38233  0.12929  0.01481  1.0000
