data_image0
_chemical_formula_structural       Zn2N4
_chemical_formula_sum              "Zn2 N4"
_cell_length_a       4.37332
_cell_length_b       4.37332
_cell_length_c       4.12587
_cell_angle_alpha    90
_cell_angle_beta     90
_cell_angle_gamma    121.937

_space_group_name_H-M_alt    "P 1"
_space_group_IT_number       1

loop_
  _space_group_symop_operation_xyz
  'x, y, z'

loop_
  _atom_site_type_symbol
  _atom_site_label
  _atom_site_symmetry_multiplicity
  _atom_site_fract_x
  _atom_site_fract_y
  _atom_site_fract_z
  _atom_site_occupancy
  Zn  Zn1       1.0  0.25001  0.25001  0.75000  1.0000
  Zn  Zn2       1.0  0.74999  0.74999  0.25000  1.0000
  N   N1        1.0  0.66189  0.83744  0.75000  1.0000
  N   N2        1.0  0.83744  0.66189  0.75000  1.0000
  N   N3        1.0  0.16256  0.33811  0.25000  1.0000
  N   N4        1.0  0.33811  0.16256  0.25000  1.0000
