data_image0
_chemical_formula_structural       S6Zn2
_chemical_formula_sum              "S6 Zn2"
_cell_length_a       3.71794
_cell_length_b       7.03573
_cell_length_c       7.52935
_cell_angle_alpha    90
_cell_angle_beta     90
_cell_angle_gamma    90

_space_group_name_H-M_alt    "P 1"
_space_group_IT_number       1

loop_
  _space_group_symop_operation_xyz
  'x, y, z'

loop_
  _atom_site_type_symbol
  _atom_site_label
  _atom_site_symmetry_multiplicity
  _atom_site_fract_x
  _atom_site_fract_y
  _atom_site_fract_z
  _atom_site_occupancy
  S   S1        1.0  0.00000  0.29607  0.29899  1.0000
  S   S2        1.0  0.00000  0.29607  0.70101  1.0000
  S   S3        1.0  0.50000  0.70393  0.20101  1.0000
  S   S4        1.0  0.50000  0.70393  0.79899  1.0000
  S   S5        1.0  0.00000  0.08586  0.50000  1.0000
  S   S6        1.0  0.50000  0.91414  0.00000  1.0000
  Zn  Zn1       1.0  0.00000  0.60647  0.00000  1.0000
  Zn  Zn2       1.0  0.50000  0.39353  0.50000  1.0000
