data_image0
_chemical_formula_structural       Zn8S16
_chemical_formula_sum              "Zn8 S16"
_cell_length_a       5.89388
_cell_length_b       10.8751
_cell_length_c       8.13822
_cell_angle_alpha    90
_cell_angle_beta     90
_cell_angle_gamma    90

_space_group_name_H-M_alt    "P 1"
_space_group_IT_number       1

loop_
  _space_group_symop_operation_xyz
  'x, y, z'

loop_
  _atom_site_type_symbol
  _atom_site_label
  _atom_site_symmetry_multiplicity
  _atom_site_fract_x
  _atom_site_fract_y
  _atom_site_fract_z
  _atom_site_occupancy
  Zn  Zn1       1.0  0.48423  0.90250  0.13952  1.0000
  Zn  Zn2       1.0  0.01577  0.59750  0.63952  1.0000
  Zn  Zn3       1.0  0.01577  0.40250  0.86048  1.0000
  Zn  Zn4       1.0  0.48423  0.09750  0.36048  1.0000
  Zn  Zn5       1.0  0.51577  0.09750  0.86048  1.0000
  Zn  Zn6       1.0  0.98423  0.40250  0.36048  1.0000
  Zn  Zn7       1.0  0.98423  0.59750  0.13952  1.0000
  Zn  Zn8       1.0  0.51577  0.90250  0.63952  1.0000
  S   S1        1.0  0.31846  0.50000  0.25000  1.0000
  S   S2        1.0  0.18154  0.00000  0.75000  1.0000
  S   S3        1.0  0.68154  0.50000  0.75000  1.0000
  S   S4        1.0  0.81846  0.00000  0.25000  1.0000
  S   S5        1.0  0.31225  0.86393  0.39718  1.0000
  S   S6        1.0  0.18775  0.63607  0.89718  1.0000
  S   S7        1.0  0.18775  0.36393  0.60282  1.0000
  S   S8        1.0  0.31225  0.13607  0.10282  1.0000
  S   S9        1.0  0.68775  0.13607  0.60282  1.0000
  S   S10       1.0  0.81225  0.36393  0.10282  1.0000
  S   S11       1.0  0.81225  0.63607  0.39718  1.0000
  S   S12       1.0  0.68775  0.86393  0.89718  1.0000
  S   S13       1.0  0.50000  0.50000  0.00000  1.0000
  S   S14       1.0  0.00000  0.00000  0.50000  1.0000
  S   S15       1.0  0.00000  0.00000  0.00000  1.0000
  S   S16       1.0  0.50000  0.50000  0.50000  1.0000
