data_image0
_chemical_formula_structural       Zn2I2
_chemical_formula_sum              "Zn2 I2"
_cell_length_a       7.62073
_cell_length_b       7.62073
_cell_length_c       4.2269
_cell_angle_alpha    90
_cell_angle_beta     90
_cell_angle_gamma    148.221

_space_group_name_H-M_alt    "P 1"
_space_group_IT_number       1

loop_
  _space_group_symop_operation_xyz
  'x, y, z'

loop_
  _atom_site_type_symbol
  _atom_site_label
  _atom_site_symmetry_multiplicity
  _atom_site_fract_x
  _atom_site_fract_y
  _atom_site_fract_z
  _atom_site_occupancy
  Zn  Zn1       1.0  0.14678  0.85322  0.75000  1.0000
  Zn  Zn2       1.0  0.85322  0.14678  0.25000  1.0000
  I   I1        1.0  0.36476  0.63524  0.75000  1.0000
  I   I2        1.0  0.63524  0.36476  0.25000  1.0000
