data_image0
_chemical_formula_structural       Zn10N6
_chemical_formula_sum              "Zn10 N6"
_cell_length_a       6.37656
_cell_length_b       6.37656
_cell_length_c       6.37656
_cell_angle_alpha    102.6
_cell_angle_beta     102.6
_cell_angle_gamma    124.313

_space_group_name_H-M_alt    "P 1"
_space_group_IT_number       1

loop_
  _space_group_symop_operation_xyz
  'x, y, z'

loop_
  _atom_site_type_symbol
  _atom_site_label
  _atom_site_symmetry_multiplicity
  _atom_site_fract_x
  _atom_site_fract_y
  _atom_site_fract_z
  _atom_site_occupancy
  Zn  Zn1       1.0  0.57983  0.29735  0.87719  1.0000
  Zn  Zn2       1.0  0.42017  0.70265  0.12281  1.0000
  Zn  Zn3       1.0  0.70265  0.57983  0.28248  1.0000
  Zn  Zn4       1.0  0.29735  0.42017  0.71752  1.0000
  Zn  Zn5       1.0  0.92017  0.79735  0.71752  1.0000
  Zn  Zn6       1.0  0.20265  0.92017  0.12281  1.0000
  Zn  Zn7       1.0  0.25000  0.75000  0.50000  1.0000
  Zn  Zn8       1.0  0.75000  0.25000  0.50000  1.0000
  Zn  Zn9       1.0  0.07983  0.20265  0.28248  1.0000
  Zn  Zn10      1.0  0.79735  0.07983  0.87719  1.0000
  N   N1        1.0  0.85784  0.35784  0.21568  1.0000
  N   N2        1.0  0.64216  0.85784  0.50000  1.0000
  N   N3        1.0  0.35784  0.14216  0.50000  1.0000
  N   N4        1.0  0.14216  0.64216  0.78432  1.0000
  N   N5        1.0  0.75000  0.75000  0.00000  1.0000
  N   N6        1.0  0.25000  0.25000  0.00000  1.0000
