data_image0
_chemical_formula_structural       Zn9I8
_chemical_formula_sum              "Zn9 I8"
_cell_length_a       9.36061
_cell_length_b       9.36061
_cell_length_c       9.36061
_cell_angle_alpha    60
_cell_angle_beta     60
_cell_angle_gamma    60

_space_group_name_H-M_alt    "P 1"
_space_group_IT_number       1

loop_
  _space_group_symop_operation_xyz
  'x, y, z'

loop_
  _atom_site_type_symbol
  _atom_site_label
  _atom_site_symmetry_multiplicity
  _atom_site_fract_x
  _atom_site_fract_y
  _atom_site_fract_z
  _atom_site_occupancy
  Zn  Zn1       1.0  0.50000  0.50000  0.50000  1.0000
  Zn  Zn2       1.0  0.89682  0.30955  0.89682  1.0000
  Zn  Zn3       1.0  0.10318  0.10318  0.69045  1.0000
  Zn  Zn4       1.0  0.69045  0.10318  0.10318  1.0000
  Zn  Zn5       1.0  0.10318  0.10318  0.10318  1.0000
  Zn  Zn6       1.0  0.30955  0.89682  0.89682  1.0000
  Zn  Zn7       1.0  0.89682  0.89682  0.89682  1.0000
  Zn  Zn8       1.0  0.89682  0.89682  0.30955  1.0000
  Zn  Zn9       1.0  0.10318  0.69045  0.10318  1.0000
  I   I1        1.0  0.75000  0.75000  0.75000  1.0000
  I   I2        1.0  0.25000  0.25000  0.25000  1.0000
  I   I3        1.0  0.29124  0.29124  0.70876  1.0000
  I   I4        1.0  0.29124  0.70876  0.70876  1.0000
  I   I5        1.0  0.70876  0.29124  0.29124  1.0000
  I   I6        1.0  0.29124  0.70876  0.29124  1.0000
  I   I7        1.0  0.70876  0.29124  0.70876  1.0000
  I   I8        1.0  0.70876  0.70876  0.29124  1.0000
