data_image0
_chemical_formula_structural       I8Zn4
_chemical_formula_sum              "I8 Zn4"
_cell_length_a       7.42981
_cell_length_b       10.1649
_cell_length_c       8.31414
_cell_angle_alpha    56.1729
_cell_angle_beta     90
_cell_angle_gamma    90

_space_group_name_H-M_alt    "P 1"
_space_group_IT_number       1

loop_
  _space_group_symop_operation_xyz
  'x, y, z'

loop_
  _atom_site_type_symbol
  _atom_site_label
  _atom_site_symmetry_multiplicity
  _atom_site_fract_x
  _atom_site_fract_y
  _atom_site_fract_z
  _atom_site_occupancy
  I   I1        1.0  0.20059  0.16773  0.24923  1.0000
  I   I2        1.0  0.70059  0.83227  0.25077  1.0000
  I   I3        1.0  0.79941  0.83227  0.75077  1.0000
  I   I4        1.0  0.29941  0.16773  0.74923  1.0000
  I   I5        1.0  0.82683  0.36995  0.79149  1.0000
  I   I6        1.0  0.32683  0.63005  0.70851  1.0000
  I   I7        1.0  0.17317  0.63005  0.20851  1.0000
  I   I8        1.0  0.67317  0.36995  0.29149  1.0000
  Zn  Zn1       1.0  0.18274  0.35069  0.86234  1.0000
  Zn  Zn2       1.0  0.68274  0.64931  0.63766  1.0000
  Zn  Zn3       1.0  0.81726  0.64931  0.13766  1.0000
  Zn  Zn4       1.0  0.31726  0.35069  0.36234  1.0000
