data_image0
_chemical_formula_structural       Zn12S16
_chemical_formula_sum              "Zn12 S16"
_cell_length_a       10.1317
_cell_length_b       10.1317
_cell_length_c       7.28579
_cell_angle_alpha    90
_cell_angle_beta     90
_cell_angle_gamma    120

_space_group_name_H-M_alt    "P 1"
_space_group_IT_number       1

loop_
  _space_group_symop_operation_xyz
  'x, y, z'

loop_
  _atom_site_type_symbol
  _atom_site_label
  _atom_site_symmetry_multiplicity
  _atom_site_fract_x
  _atom_site_fract_y
  _atom_site_fract_z
  _atom_site_occupancy
  Zn  Zn1       1.0  0.55998  0.06989  0.81155  1.0000
  Zn  Zn2       1.0  0.50991  0.44002  0.81155  1.0000
  Zn  Zn3       1.0  0.93011  0.49009  0.81155  1.0000
  Zn  Zn4       1.0  0.44002  0.50991  0.31155  1.0000
  Zn  Zn5       1.0  0.49009  0.93011  0.31155  1.0000
  Zn  Zn6       1.0  0.06989  0.55998  0.31155  1.0000
  Zn  Zn7       1.0  0.08703  0.25683  0.01827  1.0000
  Zn  Zn8       1.0  0.16980  0.91297  0.01827  1.0000
  Zn  Zn9       1.0  0.74317  0.83020  0.01827  1.0000
  Zn  Zn10      1.0  0.91297  0.16980  0.51827  1.0000
  Zn  Zn11      1.0  0.83020  0.74317  0.51827  1.0000
  Zn  Zn12      1.0  0.25683  0.08703  0.51827  1.0000
  S   S1        1.0  0.00024  0.65401  0.06398  1.0000
  S   S2        1.0  0.65377  0.99976  0.06398  1.0000
  S   S3        1.0  0.34599  0.34623  0.06398  1.0000
  S   S4        1.0  0.99976  0.65377  0.56398  1.0000
  S   S5        1.0  0.34623  0.34599  0.56398  1.0000
  S   S6        1.0  0.65401  0.00024  0.56398  1.0000
  S   S7        1.0  0.05220  0.35079  0.74158  1.0000
  S   S8        1.0  0.29860  0.94780  0.74158  1.0000
  S   S9        1.0  0.64921  0.70140  0.74158  1.0000
  S   S10       1.0  0.94780  0.29860  0.24158  1.0000
  S   S11       1.0  0.70140  0.64921  0.24158  1.0000
  S   S12       1.0  0.35079  0.05220  0.24158  1.0000
  S   S13       1.0  0.00000  0.00000  0.97781  1.0000
  S   S14       1.0  0.00000  0.00000  0.47781  1.0000
  S   S15       1.0  0.33333  0.66667  0.33046  1.0000
  S   S16       1.0  0.66667  0.33333  0.83046  1.0000
