data_image0
_chemical_formula_structural       N9Zn13
_chemical_formula_sum              "N9 Zn13"
_cell_length_a       6.33151
_cell_length_b       6.33151
_cell_length_c       7.79832
_cell_angle_alpha    90
_cell_angle_beta     90
_cell_angle_gamma    120

_space_group_name_H-M_alt    "P 1"
_space_group_IT_number       1

loop_
  _space_group_symop_operation_xyz
  'x, y, z'

loop_
  _atom_site_type_symbol
  _atom_site_label
  _atom_site_symmetry_multiplicity
  _atom_site_fract_x
  _atom_site_fract_y
  _atom_site_fract_z
  _atom_site_occupancy
  N   N1        1.0  0.00000  0.00000  0.50000  1.0000
  N   N2        1.0  0.33333  0.66667  0.60030  1.0000
  N   N3        1.0  0.66667  0.33333  0.39970  1.0000
  N   N4        1.0  0.17083  0.82917  0.14914  1.0000
  N   N5        1.0  0.17083  0.34166  0.14914  1.0000
  N   N6        1.0  0.65834  0.82917  0.14914  1.0000
  N   N7        1.0  0.34166  0.17083  0.85086  1.0000
  N   N8        1.0  0.82917  0.65834  0.85086  1.0000
  N   N9        1.0  0.82917  0.17083  0.85086  1.0000
  Zn  Zn1       1.0  0.00000  0.00000  0.00000  1.0000
  Zn  Zn2       1.0  0.50000  0.00000  0.00000  1.0000
  Zn  Zn3       1.0  0.00000  0.50000  0.00000  1.0000
  Zn  Zn4       1.0  0.50000  0.50000  0.00000  1.0000
  Zn  Zn5       1.0  0.50000  0.00000  0.50000  1.0000
  Zn  Zn6       1.0  0.00000  0.50000  0.50000  1.0000
  Zn  Zn7       1.0  0.50000  0.50000  0.50000  1.0000
  Zn  Zn8       1.0  0.14072  0.85928  0.71840  1.0000
  Zn  Zn9       1.0  0.14072  0.28144  0.71840  1.0000
  Zn  Zn10      1.0  0.71856  0.85928  0.71840  1.0000
  Zn  Zn11      1.0  0.28144  0.14072  0.28160  1.0000
  Zn  Zn12      1.0  0.85928  0.71856  0.28160  1.0000
  Zn  Zn13      1.0  0.85928  0.14072  0.28160  1.0000
