data_image0
_chemical_formula_structural       Zn14S20
_chemical_formula_sum              "Zn14 S20"
_cell_length_a       9.96615
_cell_length_b       9.96615
_cell_length_c       7.63965
_cell_angle_alpha    81.5963
_cell_angle_beta     81.5963
_cell_angle_gamma    82.0011

_space_group_name_H-M_alt    "P 1"
_space_group_IT_number       1

loop_
  _space_group_symop_operation_xyz
  'x, y, z'

loop_
  _atom_site_type_symbol
  _atom_site_label
  _atom_site_symmetry_multiplicity
  _atom_site_fract_x
  _atom_site_fract_y
  _atom_site_fract_z
  _atom_site_occupancy
  Zn  Zn1       1.0  0.15358  0.54029  0.52611  1.0000
  Zn  Zn2       1.0  0.55996  0.55996  0.72674  1.0000
  Zn  Zn3       1.0  0.84096  0.18784  0.77391  1.0000
  Zn  Zn4       1.0  0.84642  0.45971  0.47389  1.0000
  Zn  Zn5       1.0  0.14064  0.14064  0.88043  1.0000
  Zn  Zn6       1.0  0.81216  0.15904  0.22609  1.0000
  Zn  Zn7       1.0  0.21043  0.21043  0.43005  1.0000
  Zn  Zn8       1.0  0.15904  0.81216  0.22609  1.0000
  Zn  Zn9       1.0  0.45971  0.84642  0.47389  1.0000
  Zn  Zn10      1.0  0.78957  0.78957  0.56995  1.0000
  Zn  Zn11      1.0  0.18784  0.84096  0.77391  1.0000
  Zn  Zn12      1.0  0.44004  0.44004  0.27326  1.0000
  Zn  Zn13      1.0  0.85936  0.85936  0.11957  1.0000
  Zn  Zn14      1.0  0.54029  0.15358  0.52611  1.0000
  S   S1        1.0  0.27232  0.96049  0.99410  1.0000
  S   S2        1.0  0.65049  0.37651  0.12854  1.0000
  S   S3        1.0  0.25060  0.74940  0.50000  1.0000
  S   S4        1.0  0.93342  0.57551  0.69250  1.0000
  S   S5        1.0  0.72768  0.03951  0.00590  1.0000
  S   S6        1.0  0.37651  0.65049  0.12854  1.0000
  S   S7        1.0  0.42449  0.06658  0.30750  1.0000
  S   S8        1.0  0.74940  0.25060  0.50000  1.0000
  S   S9        1.0  0.34951  0.62349  0.87146  1.0000
  S   S10       1.0  0.03951  0.72768  0.00590  1.0000
  S   S11       1.0  0.06658  0.42449  0.30750  1.0000
  S   S12       1.0  0.92579  0.92579  0.36597  1.0000
  S   S13       1.0  0.00000  0.50000  0.00000  1.0000
  S   S14       1.0  0.65361  0.65361  0.44976  1.0000
  S   S15       1.0  0.57551  0.93342  0.69250  1.0000
  S   S16       1.0  0.96049  0.27232  0.99410  1.0000
  S   S17       1.0  0.62349  0.34951  0.87146  1.0000
  S   S18       1.0  0.07421  0.07421  0.63403  1.0000
  S   S19       1.0  0.50000  0.00000  0.00000  1.0000
  S   S20       1.0  0.34639  0.34639  0.55024  1.0000
