data_image0
_chemical_formula_structural       Zn4N18
_chemical_formula_sum              "Zn4 N18"
_cell_length_a       54.1185
_cell_length_b       53.3909
_cell_length_c       63.3265
_cell_angle_alpha    54.246
_cell_angle_beta     136.359
_cell_angle_gamma    131.263

_space_group_name_H-M_alt    "P 1"
_space_group_IT_number       1

loop_
  _space_group_symop_operation_xyz
  'x, y, z'

loop_
  _atom_site_type_symbol
  _atom_site_label
  _atom_site_symmetry_multiplicity
  _atom_site_fract_x
  _atom_site_fract_y
  _atom_site_fract_z
  _atom_site_occupancy
  Zn  Zn1       1.0  0.59490  0.85870  0.90489  1.0000
  Zn  Zn2       1.0  0.40510  0.14130  0.09511  1.0000
  Zn  Zn3       1.0  0.91523  0.61949  0.62598  1.0000
  Zn  Zn4       1.0  0.08477  0.38051  0.37402  1.0000
  N   N1        1.0  0.35333  0.11232  0.95878  1.0000
  N   N2        1.0  0.64667  0.88768  0.04122  1.0000
  N   N3        1.0  0.51439  0.70203  0.77132  1.0000
  N   N4        1.0  0.48561  0.29797  0.22868  1.0000
  N   N5        1.0  0.93358  0.26014  0.02129  1.0000
  N   N6        1.0  0.06642  0.73986  0.97871  1.0000
  N   N7        1.0  0.57809  0.74644  0.17162  1.0000
  N   N8        1.0  0.42191  0.25356  0.82838  1.0000
  N   N9        1.0  0.36182  0.15357  0.24977  1.0000
  N   N10       1.0  0.63818  0.84643  0.75023  1.0000
  N   N11       1.0  0.26042  0.90131  0.76071  1.0000
  N   N12       1.0  0.73958  0.09869  0.23929  1.0000
  N   N13       1.0  0.73159  0.70433  0.16867  1.0000
  N   N14       1.0  0.26841  0.29567  0.83133  1.0000
  N   N15       1.0  0.82426  0.72942  0.99254  1.0000
  N   N16       1.0  0.17574  0.27058  0.00746  1.0000
  N   N17       1.0  0.32764  0.45350  0.52422  1.0000
  N   N18       1.0  0.67236  0.54650  0.47578  1.0000
