data_image0
_chemical_formula_structural       ZnI4
_chemical_formula_sum              "Zn1 I4"
_cell_length_a       8.29947
_cell_length_b       8.29947
_cell_length_c       8.29947
_cell_angle_alpha    92.2649
_cell_angle_beta     92.2649
_cell_angle_gamma    157.067

_space_group_name_H-M_alt    "P 1"
_space_group_IT_number       1

loop_
  _space_group_symop_operation_xyz
  'x, y, z'

loop_
  _atom_site_type_symbol
  _atom_site_label
  _atom_site_symmetry_multiplicity
  _atom_site_fract_x
  _atom_site_fract_y
  _atom_site_fract_z
  _atom_site_occupancy
  Zn  Zn1       1.0  0.00000  0.00000  0.00000  1.0000
  I   I1        1.0  0.54780  0.27674  0.82454  1.0000
  I   I2        1.0  0.45220  0.72326  0.17546  1.0000
  I   I3        1.0  0.72326  0.54780  0.27106  1.0000
  I   I4        1.0  0.27674  0.45220  0.72894  1.0000
