data_image0
_chemical_formula_structural       N10Zn6
_chemical_formula_sum              "N10 Zn6"
_cell_length_a       6.06663
_cell_length_b       6.06663
_cell_length_c       6.06663
_cell_angle_alpha    109.514
_cell_angle_beta     109.514
_cell_angle_gamma    109.385

_space_group_name_H-M_alt    "P 1"
_space_group_IT_number       1

loop_
  _space_group_symop_operation_xyz
  'x, y, z'

loop_
  _atom_site_type_symbol
  _atom_site_label
  _atom_site_symmetry_multiplicity
  _atom_site_fract_x
  _atom_site_fract_y
  _atom_site_fract_z
  _atom_site_occupancy
  N   N1        1.0  0.35241  0.64782  0.50000  1.0000
  N   N2        1.0  0.64759  0.35218  0.50000  1.0000
  N   N3        1.0  0.50000  0.50000  0.00000  1.0000
  N   N4        1.0  0.00000  0.00000  0.00000  1.0000
  N   N5        1.0  0.14782  0.85241  0.50000  1.0000
  N   N6        1.0  0.85241  0.35241  0.70459  1.0000
  N   N7        1.0  0.64782  0.14782  0.29541  1.0000
  N   N8        1.0  0.35218  0.85218  0.70459  1.0000
  N   N9        1.0  0.14759  0.64759  0.29541  1.0000
  N   N10       1.0  0.85218  0.14759  0.50000  1.0000
  Zn  Zn1       1.0  0.74937  0.75063  0.50000  1.0000
  Zn  Zn2       1.0  0.75063  0.25063  0.00125  1.0000
  Zn  Zn3       1.0  0.24937  0.74937  0.99875  1.0000
  Zn  Zn4       1.0  0.25063  0.24937  0.50000  1.0000
  Zn  Zn5       1.0  0.25000  0.25000  0.00000  1.0000
  Zn  Zn6       1.0  0.75000  0.75000  0.00000  1.0000
