data_image0
_chemical_formula_structural       Zn4N8
_chemical_formula_sum              "Zn4 N8"
_cell_length_a       7.23988
_cell_length_b       7.23988
_cell_length_c       12.3285
_cell_angle_alpha    42.6115
_cell_angle_beta     42.6115
_cell_angle_gamma    27.7681

_space_group_name_H-M_alt    "P 1"
_space_group_IT_number       1

loop_
  _space_group_symop_operation_xyz
  'x, y, z'

loop_
  _atom_site_type_symbol
  _atom_site_label
  _atom_site_symmetry_multiplicity
  _atom_site_fract_x
  _atom_site_fract_y
  _atom_site_fract_z
  _atom_site_occupancy
  Zn  Zn1       1.0  0.80363  0.80363  0.88472  1.0000
  Zn  Zn2       1.0  0.19637  0.19637  0.11528  1.0000
  Zn  Zn3       1.0  0.42004  0.42004  0.33690  1.0000
  Zn  Zn4       1.0  0.57996  0.57996  0.66310  1.0000
  N   N1        1.0  0.06063  0.06063  0.95134  1.0000
  N   N2        1.0  0.93937  0.93937  0.04866  1.0000
  N   N3        1.0  0.94002  0.94002  0.56014  1.0000
  N   N4        1.0  0.05998  0.05998  0.43986  1.0000
  N   N5        1.0  0.61995  0.61995  0.15169  1.0000
  N   N6        1.0  0.38005  0.38005  0.84831  1.0000
  N   N7        1.0  0.22244  0.22244  0.55754  1.0000
  N   N8        1.0  0.77756  0.77756  0.44246  1.0000
