data_image0
_chemical_formula_structural       Zn10I6
_chemical_formula_sum              "Zn10 I6"
_cell_length_a       8.64199
_cell_length_b       8.64199
_cell_length_c       8.64199
_cell_angle_alpha    101.399
_cell_angle_beta     101.399
_cell_angle_gamma    127.208

_space_group_name_H-M_alt    "P 1"
_space_group_IT_number       1

loop_
  _space_group_symop_operation_xyz
  'x, y, z'

loop_
  _atom_site_type_symbol
  _atom_site_label
  _atom_site_symmetry_multiplicity
  _atom_site_fract_x
  _atom_site_fract_y
  _atom_site_fract_z
  _atom_site_occupancy
  Zn  Zn1       1.0  0.50017  0.17957  0.67974  1.0000
  Zn  Zn2       1.0  0.49983  0.82043  0.32026  1.0000
  Zn  Zn3       1.0  0.82043  0.50017  0.32060  1.0000
  Zn  Zn4       1.0  0.17957  0.49983  0.67940  1.0000
  Zn  Zn5       1.0  0.99983  0.67957  0.67940  1.0000
  Zn  Zn6       1.0  0.32043  0.99983  0.32026  1.0000
  Zn  Zn7       1.0  0.25000  0.75000  0.50000  1.0000
  Zn  Zn8       1.0  0.75000  0.25000  0.50000  1.0000
  Zn  Zn9       1.0  0.00017  0.32043  0.32060  1.0000
  Zn  Zn10      1.0  0.67957  0.00017  0.67974  1.0000
  I   I1        1.0  0.75061  0.25061  0.00121  1.0000
  I   I2        1.0  0.74939  0.75061  0.50000  1.0000
  I   I3        1.0  0.25061  0.24939  0.50000  1.0000
  I   I4        1.0  0.24939  0.74939  0.99879  1.0000
  I   I5        1.0  0.75000  0.75000  0.00000  1.0000
  I   I6        1.0  0.25000  0.25000  0.00000  1.0000
