data_image0
_chemical_formula_structural       N12Zn8
_chemical_formula_sum              "N12 Zn8"
_cell_length_a       5.2301
_cell_length_b       8.19382
_cell_length_c       6.16889
_cell_angle_alpha    90
_cell_angle_beta     90
_cell_angle_gamma    90

_space_group_name_H-M_alt    "P 1"
_space_group_IT_number       1

loop_
  _space_group_symop_operation_xyz
  'x, y, z'

loop_
  _atom_site_type_symbol
  _atom_site_label
  _atom_site_symmetry_multiplicity
  _atom_site_fract_x
  _atom_site_fract_y
  _atom_site_fract_z
  _atom_site_occupancy
  N   N1        1.0  0.25000  0.87510  0.60303  1.0000
  N   N2        1.0  0.75000  0.12490  0.39697  1.0000
  N   N3        1.0  0.53598  0.15884  0.29354  1.0000
  N   N4        1.0  0.03598  0.84116  0.70646  1.0000
  N   N5        1.0  0.46402  0.34116  0.79354  1.0000
  N   N6        1.0  0.03598  0.34116  0.79354  1.0000
  N   N7        1.0  0.46402  0.84116  0.70646  1.0000
  N   N8        1.0  0.96402  0.15884  0.29354  1.0000
  N   N9        1.0  0.53598  0.65884  0.20646  1.0000
  N   N10       1.0  0.25000  0.37510  0.89697  1.0000
  N   N11       1.0  0.96402  0.65884  0.20646  1.0000
  N   N12       1.0  0.75000  0.62490  0.10303  1.0000
  Zn  Zn1       1.0  0.25000  0.48913  0.19418  1.0000
  Zn  Zn2       1.0  0.25000  0.28476  0.50021  1.0000
  Zn  Zn3       1.0  0.75000  0.71524  0.49979  1.0000
  Zn  Zn4       1.0  0.75000  0.21524  0.00021  1.0000
  Zn  Zn5       1.0  0.25000  0.78476  0.99979  1.0000
  Zn  Zn6       1.0  0.25000  0.98913  0.30582  1.0000
  Zn  Zn7       1.0  0.75000  0.51087  0.80582  1.0000
  Zn  Zn8       1.0  0.75000  0.01087  0.69418  1.0000
