data_image0
_chemical_formula_structural       N6Zn2
_chemical_formula_sum              "N6 Zn2"
_cell_length_a       3.86762
_cell_length_b       6.78586
_cell_length_c       4.14024
_cell_angle_alpha    90
_cell_angle_beta     90
_cell_angle_gamma    90

_space_group_name_H-M_alt    "P 1"
_space_group_IT_number       1

loop_
  _space_group_symop_operation_xyz
  'x, y, z'

loop_
  _atom_site_type_symbol
  _atom_site_label
  _atom_site_symmetry_multiplicity
  _atom_site_fract_x
  _atom_site_fract_y
  _atom_site_fract_z
  _atom_site_occupancy
  N   N1        1.0  0.00000  0.38059  0.36537  1.0000
  N   N2        1.0  0.00000  0.38059  0.63463  1.0000
  N   N3        1.0  0.50000  0.61941  0.13463  1.0000
  N   N4        1.0  0.50000  0.61941  0.86537  1.0000
  N   N5        1.0  0.00000  0.91581  0.50000  1.0000
  N   N6        1.0  0.50000  0.08419  0.00000  1.0000
  Zn  Zn1       1.0  0.00000  0.02633  0.00000  1.0000
  Zn  Zn2       1.0  0.50000  0.97367  0.50000  1.0000
