data_image0
_chemical_formula_structural       Zn3N4
_chemical_formula_sum              "Zn3 N4"
_cell_length_a       5.42522
_cell_length_b       5.42522
_cell_length_c       5.40158
_cell_angle_alpha    62.2928
_cell_angle_beta     62.2928
_cell_angle_gamma    32.9369

_space_group_name_H-M_alt    "P 1"
_space_group_IT_number       1

loop_
  _space_group_symop_operation_xyz
  'x, y, z'

loop_
  _atom_site_type_symbol
  _atom_site_label
  _atom_site_symmetry_multiplicity
  _atom_site_fract_x
  _atom_site_fract_y
  _atom_site_fract_z
  _atom_site_occupancy
  Zn  Zn1       1.0  0.00000  0.00000  0.00000  1.0000
  Zn  Zn2       1.0  0.29778  0.29778  0.69619  1.0000
  Zn  Zn3       1.0  0.70222  0.70222  0.30381  1.0000
  N   N1        1.0  0.12128  0.12128  0.57711  1.0000
  N   N2        1.0  0.87872  0.87872  0.42289  1.0000
  N   N3        1.0  0.64883  0.64883  0.99278  1.0000
  N   N4        1.0  0.35117  0.35117  0.00722  1.0000
