data_image0
_chemical_formula_structural       Zn9N6
_chemical_formula_sum              "Zn9 N6"
_cell_length_a       7.02297
_cell_length_b       7.02297
_cell_length_c       8.00184
_cell_angle_alpha    77.3453
_cell_angle_beta     77.3453
_cell_angle_gamma    26.5005

_space_group_name_H-M_alt    "P 1"
_space_group_IT_number       1

loop_
  _space_group_symop_operation_xyz
  'x, y, z'

loop_
  _atom_site_type_symbol
  _atom_site_label
  _atom_site_symmetry_multiplicity
  _atom_site_fract_x
  _atom_site_fract_y
  _atom_site_fract_z
  _atom_site_occupancy
  Zn  Zn1       1.0  0.87202  0.87202  0.28058  1.0000
  Zn  Zn2       1.0  0.12798  0.12798  0.71942  1.0000
  Zn  Zn3       1.0  0.17119  0.17119  0.03102  1.0000
  Zn  Zn4       1.0  0.82881  0.82881  0.96898  1.0000
  Zn  Zn5       1.0  0.19898  0.19898  0.37715  1.0000
  Zn  Zn6       1.0  0.80102  0.80102  0.62285  1.0000
  Zn  Zn7       1.0  0.53146  0.53146  0.33718  1.0000
  Zn  Zn8       1.0  0.46854  0.46854  0.66282  1.0000
  Zn  Zn9       1.0  0.50000  0.50000  0.00000  1.0000
  N   N1        1.0  0.37367  0.37367  0.49271  1.0000
  N   N2        1.0  0.62633  0.62633  0.50729  1.0000
  N   N3        1.0  0.29960  0.29960  0.14986  1.0000
  N   N4        1.0  0.70040  0.70040  0.85014  1.0000
  N   N5        1.0  0.02764  0.02764  0.17291  1.0000
  N   N6        1.0  0.97236  0.97236  0.82709  1.0000
