data_image0
_chemical_formula_structural       Zn4S18
_chemical_formula_sum              "Zn4 S18"
_cell_length_a       9.90009
_cell_length_b       9.90009
_cell_length_c       8.42333
_cell_angle_alpha    84.7712
_cell_angle_beta     84.7712
_cell_angle_gamma    71.073

_space_group_name_H-M_alt    "P 1"
_space_group_IT_number       1

loop_
  _space_group_symop_operation_xyz
  'x, y, z'

loop_
  _atom_site_type_symbol
  _atom_site_label
  _atom_site_symmetry_multiplicity
  _atom_site_fract_x
  _atom_site_fract_y
  _atom_site_fract_z
  _atom_site_occupancy
  Zn  Zn1       1.0  0.41082  0.85485  0.18746  1.0000
  Zn  Zn2       1.0  0.14515  0.58918  0.31254  1.0000
  Zn  Zn3       1.0  0.58918  0.14515  0.81254  1.0000
  Zn  Zn4       1.0  0.85485  0.41082  0.68746  1.0000
  S   S1        1.0  0.38122  0.69649  0.51519  1.0000
  S   S2        1.0  0.30351  0.61878  0.98481  1.0000
  S   S3        1.0  0.59861  0.11093  0.54169  1.0000
  S   S4        1.0  0.88907  0.40139  0.95831  1.0000
  S   S5        1.0  0.40139  0.88907  0.45831  1.0000
  S   S6        1.0  0.11093  0.59861  0.04169  1.0000
  S   S7        1.0  0.17256  0.37740  0.48825  1.0000
  S   S8        1.0  0.62260  0.82744  0.01175  1.0000
  S   S9        1.0  0.82744  0.62260  0.51175  1.0000
  S   S10       1.0  0.37740  0.17256  0.98825  1.0000
  S   S11       1.0  0.99639  0.33292  0.45398  1.0000
  S   S12       1.0  0.66708  0.00361  0.04602  1.0000
  S   S13       1.0  0.00361  0.66708  0.54602  1.0000
  S   S14       1.0  0.33292  0.99639  0.95398  1.0000
  S   S15       1.0  0.69649  0.38122  0.01519  1.0000
  S   S16       1.0  0.61878  0.30351  0.48481  1.0000
  S   S17       1.0  0.36501  0.63499  0.25000  1.0000
  S   S18       1.0  0.63499  0.36501  0.75000  1.0000
