data_image0
_chemical_formula_structural       Zn6Se16
_chemical_formula_sum              "Zn6 Se16"
_cell_length_a       6.27864
_cell_length_b       6.28149
_cell_length_c       13.8723
_cell_angle_alpha    64.3531
_cell_angle_beta     90
_cell_angle_gamma    90

_space_group_name_H-M_alt    "P 1"
_space_group_IT_number       1

loop_
  _space_group_symop_operation_xyz
  'x, y, z'

loop_
  _atom_site_type_symbol
  _atom_site_label
  _atom_site_symmetry_multiplicity
  _atom_site_fract_x
  _atom_site_fract_y
  _atom_site_fract_z
  _atom_site_occupancy
  Zn  Zn1       1.0  0.48738  0.76661  0.74848  1.0000
  Zn  Zn2       1.0  0.51262  0.23339  0.25152  1.0000
  Zn  Zn3       1.0  0.50000  0.00000  0.00000  1.0000
  Zn  Zn4       1.0  0.98738  0.23339  0.75152  1.0000
  Zn  Zn5       1.0  0.01262  0.76661  0.24848  1.0000
  Zn  Zn6       1.0  0.00000  0.00000  0.50000  1.0000
  Se  Se1       1.0  0.61139  0.69486  0.19451  1.0000
  Se  Se2       1.0  0.59603  0.20587  0.68902  1.0000
  Se  Se3       1.0  0.61820  0.65195  0.94820  1.0000
  Se  Se4       1.0  0.60439  0.16849  0.45153  1.0000
  Se  Se5       1.0  0.89561  0.16849  0.95153  1.0000
  Se  Se6       1.0  0.90397  0.20587  0.18902  1.0000
  Se  Se7       1.0  0.88180  0.65195  0.44820  1.0000
  Se  Se8       1.0  0.88861  0.69486  0.69451  1.0000
  Se  Se9       1.0  0.09603  0.79413  0.81098  1.0000
  Se  Se10      1.0  0.10439  0.83151  0.04847  1.0000
  Se  Se11      1.0  0.11820  0.34805  0.55180  1.0000
  Se  Se12      1.0  0.11139  0.30514  0.30549  1.0000
  Se  Se13      1.0  0.38180  0.34805  0.05180  1.0000
  Se  Se14      1.0  0.38861  0.30514  0.80549  1.0000
  Se  Se15      1.0  0.40397  0.79413  0.31098  1.0000
  Se  Se16      1.0  0.39561  0.83151  0.54847  1.0000
