data_image0
_chemical_formula_structural       Zn4S8
_chemical_formula_sum              "Zn4 S8"
_cell_length_a       8.00459
_cell_length_b       8.00459
_cell_length_c       14.443
_cell_angle_alpha    42.9896
_cell_angle_beta     42.9896
_cell_angle_gamma    25.7179

_space_group_name_H-M_alt    "P 1"
_space_group_IT_number       1

loop_
  _space_group_symop_operation_xyz
  'x, y, z'

loop_
  _atom_site_type_symbol
  _atom_site_label
  _atom_site_symmetry_multiplicity
  _atom_site_fract_x
  _atom_site_fract_y
  _atom_site_fract_z
  _atom_site_occupancy
  Zn  Zn1       1.0  0.66310  0.66310  0.01117  1.0000
  Zn  Zn2       1.0  0.33690  0.33690  0.98883  1.0000
  Zn  Zn3       1.0  0.47317  0.47317  0.36407  1.0000
  Zn  Zn4       1.0  0.52683  0.52683  0.63593  1.0000
  S   S1        1.0  0.99235  0.99235  0.12657  1.0000
  S   S2        1.0  0.00765  0.00765  0.87343  1.0000
  S   S3        1.0  0.92354  0.92354  0.51740  1.0000
  S   S4        1.0  0.07646  0.07646  0.48260  1.0000
  S   S5        1.0  0.69349  0.69349  0.15215  1.0000
  S   S6        1.0  0.30651  0.30651  0.84785  1.0000
  S   S7        1.0  0.11932  0.11932  0.66722  1.0000
  S   S8        1.0  0.88068  0.88068  0.33278  1.0000
