data_image0
_chemical_formula_structural       Zn8Se12
_chemical_formula_sum              "Zn8 Se12"
_cell_length_a       3.99327
_cell_length_b       8.99301
_cell_length_c       14.9771
_cell_angle_alpha    90
_cell_angle_beta     90
_cell_angle_gamma    90

_space_group_name_H-M_alt    "P 1"
_space_group_IT_number       1

loop_
  _space_group_symop_operation_xyz
  'x, y, z'

loop_
  _atom_site_type_symbol
  _atom_site_label
  _atom_site_symmetry_multiplicity
  _atom_site_fract_x
  _atom_site_fract_y
  _atom_site_fract_z
  _atom_site_occupancy
  Zn  Zn1       1.0  0.25000  0.76200  0.79822  1.0000
  Zn  Zn2       1.0  0.75000  0.23800  0.20178  1.0000
  Zn  Zn3       1.0  0.75000  0.26200  0.70178  1.0000
  Zn  Zn4       1.0  0.25000  0.73800  0.29822  1.0000
  Zn  Zn5       1.0  0.25000  0.15727  0.51978  1.0000
  Zn  Zn6       1.0  0.75000  0.84273  0.48022  1.0000
  Zn  Zn7       1.0  0.75000  0.65727  0.98022  1.0000
  Zn  Zn8       1.0  0.25000  0.34273  0.01978  1.0000
  Se  Se1       1.0  0.25000  0.24283  0.79622  1.0000
  Se  Se2       1.0  0.75000  0.75717  0.20378  1.0000
  Se  Se3       1.0  0.75000  0.74283  0.70378  1.0000
  Se  Se4       1.0  0.25000  0.25717  0.29622  1.0000
  Se  Se5       1.0  0.25000  0.01476  0.37521  1.0000
  Se  Se6       1.0  0.75000  0.98524  0.62479  1.0000
  Se  Se7       1.0  0.75000  0.51476  0.12479  1.0000
  Se  Se8       1.0  0.25000  0.48524  0.87521  1.0000
  Se  Se9       1.0  0.25000  0.81311  0.95694  1.0000
  Se  Se10      1.0  0.75000  0.18689  0.04306  1.0000
  Se  Se11      1.0  0.75000  0.31311  0.54306  1.0000
  Se  Se12      1.0  0.25000  0.68689  0.45694  1.0000
