data_image0
_chemical_formula_structural       Se6Zn2
_chemical_formula_sum              "Se6 Zn2"
_cell_length_a       3.882
_cell_length_b       6.71041
_cell_length_c       8.14768
_cell_angle_alpha    90
_cell_angle_beta     90
_cell_angle_gamma    90

_space_group_name_H-M_alt    "P 1"
_space_group_IT_number       1

loop_
  _space_group_symop_operation_xyz
  'x, y, z'

loop_
  _atom_site_type_symbol
  _atom_site_label
  _atom_site_symmetry_multiplicity
  _atom_site_fract_x
  _atom_site_fract_y
  _atom_site_fract_z
  _atom_site_occupancy
  Se  Se1       1.0  0.00000  0.29143  0.29361  1.0000
  Se  Se2       1.0  0.00000  0.29143  0.70639  1.0000
  Se  Se3       1.0  0.50000  0.70857  0.20639  1.0000
  Se  Se4       1.0  0.50000  0.70857  0.79361  1.0000
  Se  Se5       1.0  0.00000  0.02706  0.50000  1.0000
  Se  Se6       1.0  0.50000  0.97294  0.00000  1.0000
  Zn  Zn1       1.0  0.00000  0.62637  0.00000  1.0000
  Zn  Zn2       1.0  0.50000  0.37363  0.50000  1.0000
