data_image0
_chemical_formula_structural       S4Zn2
_chemical_formula_sum              "S4 Zn2"
_cell_length_a       5.13214
_cell_length_b       5.13214
_cell_length_c       5.13214
_cell_angle_alpha    114.101
_cell_angle_beta     114.101
_cell_angle_gamma    100.563

_space_group_name_H-M_alt    "P 1"
_space_group_IT_number       1

loop_
  _space_group_symop_operation_xyz
  'x, y, z'

loop_
  _atom_site_type_symbol
  _atom_site_label
  _atom_site_symmetry_multiplicity
  _atom_site_fract_x
  _atom_site_fract_y
  _atom_site_fract_z
  _atom_site_occupancy
  S   S1        1.0  0.36957  0.86957  0.23913  1.0000
  S   S2        1.0  0.13043  0.36957  0.50000  1.0000
  S   S3        1.0  0.86957  0.63043  0.50000  1.0000
  S   S4        1.0  0.63043  0.13043  0.76087  1.0000
  Zn  Zn1       1.0  0.75000  0.75000  0.00000  1.0000
  Zn  Zn2       1.0  0.25000  0.25000  0.00000  1.0000
