data_image0
_chemical_formula_structural       Zn3S4
_chemical_formula_sum              "Zn3 S4"
_cell_length_a       5.84459
_cell_length_b       5.84459
_cell_length_c       7.19855
_cell_angle_alpha    93.7371
_cell_angle_beta     93.7371
_cell_angle_gamma    36.8699

_space_group_name_H-M_alt    "P 1"
_space_group_IT_number       1

loop_
  _space_group_symop_operation_xyz
  'x, y, z'

loop_
  _atom_site_type_symbol
  _atom_site_label
  _atom_site_symmetry_multiplicity
  _atom_site_fract_x
  _atom_site_fract_y
  _atom_site_fract_z
  _atom_site_occupancy
  Zn  Zn1       1.0  0.00000  0.00000  0.00000  1.0000
  Zn  Zn2       1.0  0.32529  0.32529  0.66558  1.0000
  Zn  Zn3       1.0  0.67471  0.67471  0.33442  1.0000
  S   S1        1.0  0.12002  0.12002  0.50617  1.0000
  S   S2        1.0  0.87998  0.87998  0.49383  1.0000
  S   S3        1.0  0.64007  0.64007  0.01477  1.0000
  S   S4        1.0  0.35993  0.35993  0.98523  1.0000
