data_image0
_chemical_formula_structural       Zn4S4
_chemical_formula_sum              "Zn4 S4"
_cell_length_a       5.44756
_cell_length_b       5.44756
_cell_length_c       5.44756
_cell_angle_alpha    90
_cell_angle_beta     90
_cell_angle_gamma    90

_space_group_name_H-M_alt    "P 1"
_space_group_IT_number       1

loop_
  _space_group_symop_operation_xyz
  'x, y, z'

loop_
  _atom_site_type_symbol
  _atom_site_label
  _atom_site_symmetry_multiplicity
  _atom_site_fract_x
  _atom_site_fract_y
  _atom_site_fract_z
  _atom_site_occupancy
  Zn  Zn1       1.0  0.99999  0.50001  0.49999  1.0000
  Zn  Zn2       1.0  0.50001  0.49999  0.99999  1.0000
  Zn  Zn3       1.0  0.49999  0.99999  0.50001  1.0000
  Zn  Zn4       1.0  0.00001  0.00001  0.00001  1.0000
  S   S1        1.0  0.25011  0.24989  0.75011  1.0000
  S   S2        1.0  0.24989  0.75011  0.25011  1.0000
  S   S3        1.0  0.75011  0.25011  0.24989  1.0000
  S   S4        1.0  0.74989  0.74989  0.74989  1.0000
