data_image0
_chemical_formula_structural       Zn2S2
_chemical_formula_sum              "Zn2 S2"
_cell_length_a       3.38466
_cell_length_b       3.41484
_cell_length_c       8.20343
_cell_angle_alpha    90
_cell_angle_beta     90
_cell_angle_gamma    90

_space_group_name_H-M_alt    "P 1"
_space_group_IT_number       1

loop_
  _space_group_symop_operation_xyz
  'x, y, z'

loop_
  _atom_site_type_symbol
  _atom_site_label
  _atom_site_symmetry_multiplicity
  _atom_site_fract_x
  _atom_site_fract_y
  _atom_site_fract_z
  _atom_site_occupancy
  Zn  Zn1       1.0  0.00000  0.75000  0.24267  1.0000
  Zn  Zn2       1.0  0.00000  0.25000  0.75733  1.0000
  S   S1        1.0  0.50000  0.75000  0.75342  1.0000
  S   S2        1.0  0.50000  0.25000  0.24658  1.0000
