data_image0
_chemical_formula_structural       Zn3Se4
_chemical_formula_sum              "Zn3 Se4"
_cell_length_a       6.21869
_cell_length_b       6.21869
_cell_length_c       7.63097
_cell_angle_alpha    98.3911
_cell_angle_beta     98.3911
_cell_angle_gamma    36.2967

_space_group_name_H-M_alt    "P 1"
_space_group_IT_number       1

loop_
  _space_group_symop_operation_xyz
  'x, y, z'

loop_
  _atom_site_type_symbol
  _atom_site_label
  _atom_site_symmetry_multiplicity
  _atom_site_fract_x
  _atom_site_fract_y
  _atom_site_fract_z
  _atom_site_occupancy
  Zn  Zn1       1.0  0.00000  0.00000  0.00000  1.0000
  Zn  Zn2       1.0  0.32630  0.32630  0.67075  1.0000
  Zn  Zn3       1.0  0.67370  0.67370  0.32925  1.0000
  Se  Se1       1.0  0.12028  0.12028  0.49739  1.0000
  Se  Se2       1.0  0.87972  0.87972  0.50261  1.0000
  Se  Se3       1.0  0.64131  0.64131  0.00551  1.0000
  Se  Se4       1.0  0.35869  0.35869  0.99449  1.0000
