data_image0
_chemical_formula_structural       Se10Zn6
_chemical_formula_sum              "Se10 Zn6"
_cell_length_a       7.87639
_cell_length_b       7.87639
_cell_length_c       7.87639
_cell_angle_alpha    120.627
_cell_angle_beta     120.627
_cell_angle_gamma    88.9171

_space_group_name_H-M_alt    "P 1"
_space_group_IT_number       1

loop_
  _space_group_symop_operation_xyz
  'x, y, z'

loop_
  _atom_site_type_symbol
  _atom_site_label
  _atom_site_symmetry_multiplicity
  _atom_site_fract_x
  _atom_site_fract_y
  _atom_site_fract_z
  _atom_site_occupancy
  Se  Se1       1.0  0.55444  0.64473  0.50000  1.0000
  Se  Se2       1.0  0.44556  0.35527  0.50000  1.0000
  Se  Se3       1.0  0.50000  0.50000  0.00000  1.0000
  Se  Se4       1.0  0.00000  0.00000  0.00000  1.0000
  Se  Se5       1.0  0.14473  0.05444  0.50000  1.0000
  Se  Se6       1.0  0.05444  0.55444  0.90971  1.0000
  Se  Se7       1.0  0.64473  0.14473  0.09029  1.0000
  Se  Se8       1.0  0.35527  0.85527  0.90971  1.0000
  Se  Se9       1.0  0.94556  0.44556  0.09029  1.0000
  Se  Se10      1.0  0.85527  0.94556  0.50000  1.0000
  Zn  Zn1       1.0  0.88128  0.61872  0.50000  1.0000
  Zn  Zn2       1.0  0.61872  0.11872  0.73745  1.0000
  Zn  Zn3       1.0  0.38128  0.88128  0.26255  1.0000
  Zn  Zn4       1.0  0.11872  0.38128  0.50000  1.0000
  Zn  Zn5       1.0  0.25000  0.25000  0.00000  1.0000
  Zn  Zn6       1.0  0.75000  0.75000  1.00000  1.0000
