data_image0
_chemical_formula_structural       Zn6Se20
_chemical_formula_sum              "Zn6 Se20"
_cell_length_a       14.0914
_cell_length_b       14.0914
_cell_length_c       4.1399
_cell_angle_alpha    90
_cell_angle_beta     90
_cell_angle_gamma    120

_space_group_name_H-M_alt    "P 1"
_space_group_IT_number       1

loop_
  _space_group_symop_operation_xyz
  'x, y, z'

loop_
  _atom_site_type_symbol
  _atom_site_label
  _atom_site_symmetry_multiplicity
  _atom_site_fract_x
  _atom_site_fract_y
  _atom_site_fract_z
  _atom_site_occupancy
  Zn  Zn1       1.0  0.45113  0.58805  0.25000  1.0000
  Zn  Zn2       1.0  0.41195  0.86308  0.25000  1.0000
  Zn  Zn3       1.0  0.13692  0.54887  0.25000  1.0000
  Zn  Zn4       1.0  0.54887  0.41195  0.75000  1.0000
  Zn  Zn5       1.0  0.58805  0.13692  0.75000  1.0000
  Zn  Zn6       1.0  0.86308  0.45113  0.75000  1.0000
  Se  Se1       1.0  0.93069  0.11830  0.25000  1.0000
  Se  Se2       1.0  0.88170  0.81239  0.25000  1.0000
  Se  Se3       1.0  0.18761  0.06931  0.25000  1.0000
  Se  Se4       1.0  0.06931  0.88170  0.75000  1.0000
  Se  Se5       1.0  0.11830  0.18761  0.75000  1.0000
  Se  Se6       1.0  0.81239  0.93069  0.75000  1.0000
  Se  Se7       1.0  0.61613  0.05541  0.25000  1.0000
  Se  Se8       1.0  0.94459  0.56072  0.25000  1.0000
  Se  Se9       1.0  0.43928  0.38387  0.25000  1.0000
  Se  Se10      1.0  0.38387  0.94459  0.75000  1.0000
  Se  Se11      1.0  0.05541  0.43928  0.75000  1.0000
  Se  Se12      1.0  0.56072  0.61613  0.75000  1.0000
  Se  Se13      1.0  0.82773  0.19980  0.25000  1.0000
  Se  Se14      1.0  0.80020  0.62792  0.25000  1.0000
  Se  Se15      1.0  0.37208  0.17227  0.25000  1.0000
  Se  Se16      1.0  0.17227  0.80020  0.75000  1.0000
  Se  Se17      1.0  0.19980  0.37208  0.75000  1.0000
  Se  Se18      1.0  0.62792  0.82773  0.75000  1.0000
  Se  Se19      1.0  0.66667  0.33333  0.75000  1.0000
  Se  Se20      1.0  0.33333  0.66667  0.25000  1.0000
