data_image0
_chemical_formula_structural       Zn10Se6
_chemical_formula_sum              "Zn10 Se6"
_cell_length_a       7.78742
_cell_length_b       7.78742
_cell_length_c       7.78742
_cell_angle_alpha    101.881
_cell_angle_beta     101.881
_cell_angle_gamma    126.033

_space_group_name_H-M_alt    "P 1"
_space_group_IT_number       1

loop_
  _space_group_symop_operation_xyz
  'x, y, z'

loop_
  _atom_site_type_symbol
  _atom_site_label
  _atom_site_symmetry_multiplicity
  _atom_site_fract_x
  _atom_site_fract_y
  _atom_site_fract_z
  _atom_site_occupancy
  Zn  Zn1       1.0  0.59799  0.28916  0.88715  1.0000
  Zn  Zn2       1.0  0.40201  0.71084  0.11285  1.0000
  Zn  Zn3       1.0  0.71084  0.59799  0.30883  1.0000
  Zn  Zn4       1.0  0.28916  0.40201  0.69117  1.0000
  Zn  Zn5       1.0  0.90201  0.78916  0.69117  1.0000
  Zn  Zn6       1.0  0.21084  0.90201  0.11285  1.0000
  Zn  Zn7       1.0  0.25000  0.75000  0.50000  1.0000
  Zn  Zn8       1.0  0.75000  0.25000  0.50000  1.0000
  Zn  Zn9       1.0  0.09799  0.21084  0.30883  1.0000
  Zn  Zn10      1.0  0.78916  0.09799  0.88715  1.0000
  Se  Se1       1.0  0.87176  0.37176  0.24351  1.0000
  Se  Se2       1.0  0.62824  0.87176  0.50000  1.0000
  Se  Se3       1.0  0.37176  0.12824  0.50000  1.0000
  Se  Se4       1.0  0.12824  0.62824  0.75649  1.0000
  Se  Se5       1.0  0.75000  0.75000  0.00000  1.0000
  Se  Se6       1.0  0.25000  0.25000  0.00000  1.0000
