data_image0
_chemical_formula_structural       Zn8S12
_chemical_formula_sum              "Zn8 S12"
_cell_length_a       3.94676
_cell_length_b       7.05378
_cell_length_c       16.3384
_cell_angle_alpha    90
_cell_angle_beta     90
_cell_angle_gamma    90

_space_group_name_H-M_alt    "P 1"
_space_group_IT_number       1

loop_
  _space_group_symop_operation_xyz
  'x, y, z'

loop_
  _atom_site_type_symbol
  _atom_site_label
  _atom_site_symmetry_multiplicity
  _atom_site_fract_x
  _atom_site_fract_y
  _atom_site_fract_z
  _atom_site_occupancy
  Zn  Zn1       1.0  0.25000  0.69902  0.81653  1.0000
  Zn  Zn2       1.0  0.75000  0.30098  0.18347  1.0000
  Zn  Zn3       1.0  0.75000  0.19902  0.68347  1.0000
  Zn  Zn4       1.0  0.25000  0.80098  0.31653  1.0000
  Zn  Zn5       1.0  0.25000  0.33063  0.47290  1.0000
  Zn  Zn6       1.0  0.75000  0.66937  0.52710  1.0000
  Zn  Zn7       1.0  0.75000  0.83063  0.02710  1.0000
  Zn  Zn8       1.0  0.25000  0.16937  0.97290  1.0000
  S   S1        1.0  0.25000  0.17292  0.76067  1.0000
  S   S2        1.0  0.75000  0.82708  0.23933  1.0000
  S   S3        1.0  0.75000  0.67292  0.73933  1.0000
  S   S4        1.0  0.25000  0.32708  0.26067  1.0000
  S   S5        1.0  0.25000  0.13791  0.35835  1.0000
  S   S6        1.0  0.75000  0.86209  0.64165  1.0000
  S   S7        1.0  0.75000  0.63791  0.14165  1.0000
  S   S8        1.0  0.25000  0.36209  0.85835  1.0000
  S   S9        1.0  0.25000  0.83109  0.94636  1.0000
  S   S10       1.0  0.75000  0.16891  0.05364  1.0000
  S   S11       1.0  0.75000  0.33109  0.55364  1.0000
  S   S12       1.0  0.25000  0.66891  0.44636  1.0000
