data_image0
_chemical_formula_structural       Zn14Se20
_chemical_formula_sum              "Zn14 Se20"
_cell_length_a       10.6436
_cell_length_b       10.6436
_cell_length_c       8.18656
_cell_angle_alpha    87.7163
_cell_angle_beta     87.7163
_cell_angle_gamma    82.6365

_space_group_name_H-M_alt    "P 1"
_space_group_IT_number       1

loop_
  _space_group_symop_operation_xyz
  'x, y, z'

loop_
  _atom_site_type_symbol
  _atom_site_label
  _atom_site_symmetry_multiplicity
  _atom_site_fract_x
  _atom_site_fract_y
  _atom_site_fract_z
  _atom_site_occupancy
  Zn  Zn1       1.0  0.14245  0.56076  0.50926  1.0000
  Zn  Zn2       1.0  0.52441  0.52441  0.70603  1.0000
  Zn  Zn3       1.0  0.80059  0.21181  0.80242  1.0000
  Zn  Zn4       1.0  0.85755  0.43924  0.49074  1.0000
  Zn  Zn5       1.0  0.12603  0.12603  0.82986  1.0000
  Zn  Zn6       1.0  0.78819  0.19941  0.19758  1.0000
  Zn  Zn7       1.0  0.23588  0.23588  0.42749  1.0000
  Zn  Zn8       1.0  0.19941  0.78819  0.19758  1.0000
  Zn  Zn9       1.0  0.43924  0.85755  0.49074  1.0000
  Zn  Zn10      1.0  0.76412  0.76412  0.57251  1.0000
  Zn  Zn11      1.0  0.21181  0.80059  0.80242  1.0000
  Zn  Zn12      1.0  0.47559  0.47559  0.29397  1.0000
  Zn  Zn13      1.0  0.87397  0.87397  0.17014  1.0000
  Zn  Zn14      1.0  0.56076  0.14245  0.50926  1.0000
  Se  Se1       1.0  0.25755  0.96518  0.98757  1.0000
  Se  Se2       1.0  0.66571  0.40967  0.12349  1.0000
  Se  Se3       1.0  0.23258  0.76742  0.50000  1.0000
  Se  Se4       1.0  0.93996  0.57322  0.69115  1.0000
  Se  Se5       1.0  0.74245  0.03482  0.01243  1.0000
  Se  Se6       1.0  0.40967  0.66571  0.12349  1.0000
  Se  Se7       1.0  0.42678  0.06004  0.30885  1.0000
  Se  Se8       1.0  0.76742  0.23258  0.50000  1.0000
  Se  Se9       1.0  0.33429  0.59033  0.87651  1.0000
  Se  Se10      1.0  0.03482  0.74245  0.01243  1.0000
  Se  Se11      1.0  0.06004  0.42678  0.30885  1.0000
  Se  Se12      1.0  0.89822  0.89822  0.44675  1.0000
  Se  Se13      1.0  0.00000  0.50000  0.00000  1.0000
  Se  Se14      1.0  0.62125  0.62125  0.47051  1.0000
  Se  Se15      1.0  0.57322  0.93996  0.69115  1.0000
  Se  Se16      1.0  0.96518  0.25755  0.98757  1.0000
  Se  Se17      1.0  0.59033  0.33429  0.87651  1.0000
  Se  Se18      1.0  0.10178  0.10178  0.55325  1.0000
  Se  Se19      1.0  0.50000  0.00000  0.00000  1.0000
  Se  Se20      1.0  0.37875  0.37875  0.52949  1.0000
