data_image0
_chemical_formula_structural       Zn6Se4
_chemical_formula_sum              "Zn6 Se4"
_cell_length_a       7.51427
_cell_length_b       7.51427
_cell_length_c       3.97188
_cell_angle_alpha    90
_cell_angle_beta     90
_cell_angle_gamma    90

_space_group_name_H-M_alt    "P 1"
_space_group_IT_number       1

loop_
  _space_group_symop_operation_xyz
  'x, y, z'

loop_
  _atom_site_type_symbol
  _atom_site_label
  _atom_site_symmetry_multiplicity
  _atom_site_fract_x
  _atom_site_fract_y
  _atom_site_fract_z
  _atom_site_occupancy
  Zn  Zn1       1.0  0.00000  0.00000  0.00000  1.0000
  Zn  Zn2       1.0  0.50000  0.50000  0.00000  1.0000
  Zn  Zn3       1.0  0.18223  0.68223  0.73602  1.0000
  Zn  Zn4       1.0  0.31777  0.18223  0.26398  1.0000
  Zn  Zn5       1.0  0.68223  0.81777  0.26398  1.0000
  Zn  Zn6       1.0  0.81777  0.31777  0.73602  1.0000
  Se  Se1       1.0  0.33140  0.83140  0.24980  1.0000
  Se  Se2       1.0  0.16860  0.33140  0.75020  1.0000
  Se  Se3       1.0  0.83140  0.66860  0.75020  1.0000
  Se  Se4       1.0  0.66860  0.16860  0.24980  1.0000
