data_image0
_chemical_formula_structural       Zn4Se18
_chemical_formula_sum              "Zn4 Se18"
_cell_length_a       11.6614
_cell_length_b       11.6614
_cell_length_c       6.67039
_cell_angle_alpha    74.4286
_cell_angle_beta     74.4286
_cell_angle_gamma    76.0348

_space_group_name_H-M_alt    "P 1"
_space_group_IT_number       1

loop_
  _space_group_symop_operation_xyz
  'x, y, z'

loop_
  _atom_site_type_symbol
  _atom_site_label
  _atom_site_symmetry_multiplicity
  _atom_site_fract_x
  _atom_site_fract_y
  _atom_site_fract_z
  _atom_site_occupancy
  Zn  Zn1       1.0  0.39627  0.83123  0.15449  1.0000
  Zn  Zn2       1.0  0.16877  0.60373  0.34551  1.0000
  Zn  Zn3       1.0  0.60373  0.16877  0.84551  1.0000
  Zn  Zn4       1.0  0.83123  0.39627  0.65449  1.0000
  Se  Se1       1.0  0.43793  0.67715  0.57367  1.0000
  Se  Se2       1.0  0.32285  0.56207  0.92633  1.0000
  Se  Se3       1.0  0.69402  0.13903  0.47598  1.0000
  Se  Se4       1.0  0.86097  0.30598  0.02402  1.0000
  Se  Se5       1.0  0.30598  0.86097  0.52402  1.0000
  Se  Se6       1.0  0.13903  0.69402  0.97598  1.0000
  Se  Se7       1.0  0.14807  0.38304  0.51333  1.0000
  Se  Se8       1.0  0.61696  0.85193  0.98667  1.0000
  Se  Se9       1.0  0.85193  0.61696  0.48667  1.0000
  Se  Se10      1.0  0.38304  0.14807  0.01333  1.0000
  Se  Se11      1.0  0.00015  0.37982  0.34691  1.0000
  Se  Se12      1.0  0.62018  0.99985  0.15309  1.0000
  Se  Se13      1.0  0.99985  0.62018  0.65309  1.0000
  Se  Se14      1.0  0.37982  0.00015  0.84691  1.0000
  Se  Se15      1.0  0.67715  0.43793  0.07367  1.0000
  Se  Se16      1.0  0.56207  0.32285  0.42633  1.0000
  Se  Se17      1.0  0.39614  0.60386  0.25000  1.0000
  Se  Se18      1.0  0.60386  0.39614  0.75000  1.0000
