data_image0
_chemical_formula_structural       Zn6S4
_chemical_formula_sum              "Zn6 S4"
_cell_length_a       7.21854
_cell_length_b       7.21854
_cell_length_c       3.76064
_cell_angle_alpha    90
_cell_angle_beta     90
_cell_angle_gamma    90

_space_group_name_H-M_alt    "P 1"
_space_group_IT_number       1

loop_
  _space_group_symop_operation_xyz
  'x, y, z'

loop_
  _atom_site_type_symbol
  _atom_site_label
  _atom_site_symmetry_multiplicity
  _atom_site_fract_x
  _atom_site_fract_y
  _atom_site_fract_z
  _atom_site_occupancy
  Zn  Zn1       1.0  0.00000  0.00000  0.00000  1.0000
  Zn  Zn2       1.0  0.50000  0.50000  0.00000  1.0000
  Zn  Zn3       1.0  0.18274  0.68274  0.73441  1.0000
  Zn  Zn4       1.0  0.31726  0.18274  0.26559  1.0000
  Zn  Zn5       1.0  0.68274  0.81726  0.26559  1.0000
  Zn  Zn6       1.0  0.81726  0.31726  0.73441  1.0000
  S   S1        1.0  0.33371  0.83371  0.25341  1.0000
  S   S2        1.0  0.16629  0.33371  0.74659  1.0000
  S   S3        1.0  0.83371  0.66629  0.74659  1.0000
  S   S4        1.0  0.66629  0.16629  0.25341  1.0000
