data_image0
_chemical_formula_structural       Tl8Zn12
_chemical_formula_sum              "Tl8 Zn12"
_cell_length_a       5.5201
_cell_length_b       5.5201
_cell_length_c       16.8614
_cell_angle_alpha    90
_cell_angle_beta     90
_cell_angle_gamma    120

_space_group_name_H-M_alt    "P 1"
_space_group_IT_number       1

loop_
  _space_group_symop_operation_xyz
  'x, y, z'

loop_
  _atom_site_type_symbol
  _atom_site_label
  _atom_site_symmetry_multiplicity
  _atom_site_fract_x
  _atom_site_fract_y
  _atom_site_fract_z
  _atom_site_occupancy
  Tl  Tl1       1.0  0.00000  0.00000  0.25000  1.0000
  Tl  Tl2       1.0  0.00000  0.00000  0.75000  1.0000
  Tl  Tl3       1.0  0.33333  0.66667  0.25000  1.0000
  Tl  Tl4       1.0  0.66667  0.33333  0.75000  1.0000
  Tl  Tl5       1.0  0.33333  0.66667  0.64414  1.0000
  Tl  Tl6       1.0  0.66667  0.33333  0.14414  1.0000
  Tl  Tl7       1.0  0.66667  0.33333  0.35586  1.0000
  Tl  Tl8       1.0  0.33333  0.66667  0.85586  1.0000
  Zn  Zn1       1.0  0.17060  0.34120  0.43616  1.0000
  Zn  Zn2       1.0  0.17060  0.82940  0.43616  1.0000
  Zn  Zn3       1.0  0.65880  0.82940  0.43616  1.0000
  Zn  Zn4       1.0  0.82940  0.17060  0.93616  1.0000
  Zn  Zn5       1.0  0.34120  0.17060  0.93616  1.0000
  Zn  Zn6       1.0  0.82940  0.65880  0.93616  1.0000
  Zn  Zn7       1.0  0.82940  0.65880  0.56384  1.0000
  Zn  Zn8       1.0  0.82940  0.17060  0.56384  1.0000
  Zn  Zn9       1.0  0.34120  0.17060  0.56384  1.0000
  Zn  Zn10      1.0  0.17060  0.82940  0.06384  1.0000
  Zn  Zn11      1.0  0.65880  0.82940  0.06384  1.0000
  Zn  Zn12      1.0  0.17060  0.34120  0.06384  1.0000
