data_image0
_chemical_formula_structural       S10Zn6
_chemical_formula_sum              "S10 Zn6"
_cell_length_a       7.46214
_cell_length_b       7.46214
_cell_length_c       7.46214
_cell_angle_alpha    118.748
_cell_angle_beta     118.748
_cell_angle_gamma    92.1831

_space_group_name_H-M_alt    "P 1"
_space_group_IT_number       1

loop_
  _space_group_symop_operation_xyz
  'x, y, z'

loop_
  _atom_site_type_symbol
  _atom_site_label
  _atom_site_symmetry_multiplicity
  _atom_site_fract_x
  _atom_site_fract_y
  _atom_site_fract_z
  _atom_site_occupancy
  S   S1        1.0  0.54936  0.63211  0.50000  1.0000
  S   S2        1.0  0.45064  0.36789  0.50000  1.0000
  S   S3        1.0  0.50000  0.50000  0.00000  1.0000
  S   S4        1.0  0.00000  0.00000  0.00000  1.0000
  S   S5        1.0  0.13211  0.04936  0.50000  1.0000
  S   S6        1.0  0.04936  0.54936  0.91724  1.0000
  S   S7        1.0  0.63211  0.13211  0.08276  1.0000
  S   S8        1.0  0.36789  0.86789  0.91724  1.0000
  S   S9        1.0  0.95064  0.45064  0.08276  1.0000
  S   S10       1.0  0.86789  0.95064  0.50000  1.0000
  Zn  Zn1       1.0  0.87629  0.62371  0.50000  1.0000
  Zn  Zn2       1.0  0.62371  0.12371  0.74743  1.0000
  Zn  Zn3       1.0  0.37629  0.87629  0.25257  1.0000
  Zn  Zn4       1.0  0.12371  0.37629  0.50000  1.0000
  Zn  Zn5       1.0  0.25000  0.25000  0.00000  1.0000
  Zn  Zn6       1.0  0.75000  0.75000  0.00000  1.0000
