data_image0
_chemical_formula_structural       Zn10S6
_chemical_formula_sum              "Zn10 S6"
_cell_length_a       7.49263
_cell_length_b       7.49263
_cell_length_c       7.49263
_cell_angle_alpha    101.627
_cell_angle_beta     101.627
_cell_angle_gamma    126.65

_space_group_name_H-M_alt    "P 1"
_space_group_IT_number       1

loop_
  _space_group_symop_operation_xyz
  'x, y, z'

loop_
  _atom_site_type_symbol
  _atom_site_label
  _atom_site_symmetry_multiplicity
  _atom_site_fract_x
  _atom_site_fract_y
  _atom_site_fract_z
  _atom_site_occupancy
  Zn  Zn1       1.0  0.59491  0.28653  0.88144  1.0000
  Zn  Zn2       1.0  0.40509  0.71347  0.11856  1.0000
  Zn  Zn3       1.0  0.71347  0.59491  0.30838  1.0000
  Zn  Zn4       1.0  0.28653  0.40509  0.69162  1.0000
  Zn  Zn5       1.0  0.90509  0.78653  0.69162  1.0000
  Zn  Zn6       1.0  0.21347  0.90509  0.11856  1.0000
  Zn  Zn7       1.0  0.25000  0.75000  0.50000  1.0000
  Zn  Zn8       1.0  0.75000  0.25000  0.50000  1.0000
  Zn  Zn9       1.0  0.09491  0.21347  0.30838  1.0000
  Zn  Zn10      1.0  0.78653  0.09491  0.88144  1.0000
  S   S1        1.0  0.87293  0.37293  0.24587  1.0000
  S   S2        1.0  0.62707  0.87293  0.50000  1.0000
  S   S3        1.0  0.37293  0.12707  0.50000  1.0000
  S   S4        1.0  0.12707  0.62707  0.75413  1.0000
  S   S5        1.0  0.75000  0.75000  0.00000  1.0000
  S   S6        1.0  0.25000  0.25000  0.00000  1.0000
