data_image0
_chemical_formula_structural       Zn4Se4
_chemical_formula_sum              "Zn4 Se4"
_cell_length_a       5.73698
_cell_length_b       5.73698
_cell_length_c       5.73698
_cell_angle_alpha    90
_cell_angle_beta     90
_cell_angle_gamma    90

_space_group_name_H-M_alt    "P 1"
_space_group_IT_number       1

loop_
  _space_group_symop_operation_xyz
  'x, y, z'

loop_
  _atom_site_type_symbol
  _atom_site_label
  _atom_site_symmetry_multiplicity
  _atom_site_fract_x
  _atom_site_fract_y
  _atom_site_fract_z
  _atom_site_occupancy
  Zn  Zn1       1.0  0.99890  0.50110  0.49890  1.0000
  Zn  Zn2       1.0  0.50110  0.49890  0.99890  1.0000
  Zn  Zn3       1.0  0.49890  0.99890  0.50110  1.0000
  Zn  Zn4       1.0  0.00110  0.00110  0.00110  1.0000
  Se  Se1       1.0  0.24950  0.25050  0.74950  1.0000
  Se  Se2       1.0  0.25050  0.74950  0.24950  1.0000
  Se  Se3       1.0  0.74950  0.24950  0.25050  1.0000
  Se  Se4       1.0  0.75050  0.75050  0.75050  1.0000
