data_image0
_chemical_formula_structural       ZnS3
_chemical_formula_sum              "Zn1 S3"
_cell_length_a       8.72306
_cell_length_b       8.72306
_cell_length_c       8.72306
_cell_angle_alpha    157.701
_cell_angle_beta     157.701
_cell_angle_gamma    31.7415

_space_group_name_H-M_alt    "P 1"
_space_group_IT_number       1

loop_
  _space_group_symop_operation_xyz
  'x, y, z'

loop_
  _atom_site_type_symbol
  _atom_site_label
  _atom_site_symmetry_multiplicity
  _atom_site_fract_x
  _atom_site_fract_y
  _atom_site_fract_z
  _atom_site_occupancy
  Zn  Zn1       1.0  0.00000  0.00000  0.00000  1.0000
  S   S1        1.0  0.75000  0.25000  0.50000  1.0000
  S   S2        1.0  0.25000  0.75000  0.50000  1.0000
  S   S3        1.0  0.50000  0.50000  0.00000  1.0000
