data_image0
_chemical_formula_structural       Zn4Se12
_chemical_formula_sum              "Zn4 Se12"
_cell_length_a       9.04853
_cell_length_b       9.04853
_cell_length_c       5.32953
_cell_angle_alpha    90
_cell_angle_beta     90
_cell_angle_gamma    118.285

_space_group_name_H-M_alt    "P 1"
_space_group_IT_number       1

loop_
  _space_group_symop_operation_xyz
  'x, y, z'

loop_
  _atom_site_type_symbol
  _atom_site_label
  _atom_site_symmetry_multiplicity
  _atom_site_fract_x
  _atom_site_fract_y
  _atom_site_fract_z
  _atom_site_occupancy
  Zn  Zn1       1.0  0.59953  0.40047  0.00000  1.0000
  Zn  Zn2       1.0  0.40047  0.59953  0.00000  1.0000
  Zn  Zn3       1.0  0.09953  0.90047  0.50000  1.0000
  Zn  Zn4       1.0  0.90047  0.09953  0.50000  1.0000
  Se  Se1       1.0  0.71807  0.71807  0.99989  1.0000
  Se  Se2       1.0  0.21807  0.21807  0.50011  1.0000
  Se  Se3       1.0  0.78193  0.78193  0.49989  1.0000
  Se  Se4       1.0  0.35639  0.64361  0.50000  1.0000
  Se  Se5       1.0  0.10549  0.60549  0.75000  1.0000
  Se  Se6       1.0  0.85639  0.14361  0.00000  1.0000
  Se  Se7       1.0  0.89451  0.39451  0.25000  1.0000
  Se  Se8       1.0  0.28193  0.28193  0.00011  1.0000
  Se  Se9       1.0  0.64361  0.35639  0.50000  1.0000
  Se  Se10      1.0  0.14361  0.85639  0.00000  1.0000
  Se  Se11      1.0  0.39451  0.89451  0.25000  1.0000
  Se  Se12      1.0  0.60549  0.10549  0.75000  1.0000
