data_image0
_chemical_formula_structural       Se9Zn13
_chemical_formula_sum              "Se9 Zn13"
_cell_length_a       7.64071
_cell_length_b       7.64071
_cell_length_c       9.01918
_cell_angle_alpha    90
_cell_angle_beta     90
_cell_angle_gamma    120

_space_group_name_H-M_alt    "P 1"
_space_group_IT_number       1

loop_
  _space_group_symop_operation_xyz
  'x, y, z'

loop_
  _atom_site_type_symbol
  _atom_site_label
  _atom_site_symmetry_multiplicity
  _atom_site_fract_x
  _atom_site_fract_y
  _atom_site_fract_z
  _atom_site_occupancy
  Se  Se1       1.0  0.00000  0.00000  0.50000  1.0000
  Se  Se2       1.0  0.33333  0.66667  0.81551  1.0000
  Se  Se3       1.0  0.66667  0.33333  0.18449  1.0000
  Se  Se4       1.0  0.16971  0.83029  0.16796  1.0000
  Se  Se5       1.0  0.16971  0.33943  0.16796  1.0000
  Se  Se6       1.0  0.66057  0.83029  0.16796  1.0000
  Se  Se7       1.0  0.33943  0.16971  0.83204  1.0000
  Se  Se8       1.0  0.83029  0.66057  0.83204  1.0000
  Se  Se9       1.0  0.83029  0.16971  0.83204  1.0000
  Zn  Zn1       1.0  0.00000  0.00000  0.00000  1.0000
  Zn  Zn2       1.0  0.50000  0.00000  0.00000  1.0000
  Zn  Zn3       1.0  0.00000  0.50000  0.00000  1.0000
  Zn  Zn4       1.0  0.50000  0.50000  0.00000  1.0000
  Zn  Zn5       1.0  0.50000  0.00000  0.50000  1.0000
  Zn  Zn6       1.0  0.00000  0.50000  0.50000  1.0000
  Zn  Zn7       1.0  0.50000  0.50000  0.50000  1.0000
  Zn  Zn8       1.0  0.15836  0.84164  0.68138  1.0000
  Zn  Zn9       1.0  0.15836  0.31672  0.68138  1.0000
  Zn  Zn10      1.0  0.68328  0.84164  0.68138  1.0000
  Zn  Zn11      1.0  0.31672  0.15836  0.31862  1.0000
  Zn  Zn12      1.0  0.84164  0.68328  0.31862  1.0000
  Zn  Zn13      1.0  0.84164  0.15836  0.31862  1.0000
