data_image0
_chemical_formula_structural       ZnSe4
_chemical_formula_sum              "Zn1 Se4"
_cell_length_a       6.35442
_cell_length_b       6.35442
_cell_length_c       6.35442
_cell_angle_alpha    93.8763
_cell_angle_beta     93.8763
_cell_angle_gamma    149.859

_space_group_name_H-M_alt    "P 1"
_space_group_IT_number       1

loop_
  _space_group_symop_operation_xyz
  'x, y, z'

loop_
  _atom_site_type_symbol
  _atom_site_label
  _atom_site_symmetry_multiplicity
  _atom_site_fract_x
  _atom_site_fract_y
  _atom_site_fract_z
  _atom_site_occupancy
  Zn  Zn1       1.0  0.00000  0.00000  0.00000  1.0000
  Se  Se1       1.0  0.63877  0.72602  0.36479  1.0000
  Se  Se2       1.0  0.36123  0.27398  0.63521  1.0000
  Se  Se3       1.0  0.27398  0.63877  0.91275  1.0000
  Se  Se4       1.0  0.72602  0.36123  0.08725  1.0000
