data_image0
_chemical_formula_structural       ZrI4
_chemical_formula_sum              "Zr1 I4"
_cell_length_a       7.88864
_cell_length_b       7.88864
_cell_length_c       7.88864
_cell_angle_alpha    92.9609
_cell_angle_beta     92.9609
_cell_angle_gamma    153.727

_space_group_name_H-M_alt    "P 1"
_space_group_IT_number       1

loop_
  _space_group_symop_operation_xyz
  'x, y, z'

loop_
  _atom_site_type_symbol
  _atom_site_label
  _atom_site_symmetry_multiplicity
  _atom_site_fract_x
  _atom_site_fract_y
  _atom_site_fract_z
  _atom_site_occupancy
  Zr  Zr1       1.0  0.00000  0.00000  0.00000  1.0000
  I   I1        1.0  0.56064  0.72268  0.28332  1.0000
  I   I2        1.0  0.43936  0.27732  0.71668  1.0000
  I   I3        1.0  0.27732  0.56064  0.83797  1.0000
  I   I4        1.0  0.72268  0.43936  0.16203  1.0000
