data_image0
_chemical_formula_structural       Zr4Hg12
_chemical_formula_sum              "Zr4 Hg12"
_cell_length_a       9.2328
_cell_length_b       9.2328
_cell_length_c       6.38534
_cell_angle_alpha    90
_cell_angle_beta     90
_cell_angle_gamma    139.298

_space_group_name_H-M_alt    "P 1"
_space_group_IT_number       1

loop_
  _space_group_symop_operation_xyz
  'x, y, z'

loop_
  _atom_site_type_symbol
  _atom_site_label
  _atom_site_symmetry_multiplicity
  _atom_site_fract_x
  _atom_site_fract_y
  _atom_site_fract_z
  _atom_site_occupancy
  Zr  Zr1       1.0  0.62396  0.37604  0.00000  1.0000
  Zr  Zr2       1.0  0.37604  0.62396  0.00000  1.0000
  Zr  Zr3       1.0  0.12396  0.87604  0.50000  1.0000
  Zr  Zr4       1.0  0.87604  0.12396  0.50000  1.0000
  Hg  Hg1       1.0  0.74867  0.74867  0.24617  1.0000
  Hg  Hg2       1.0  0.24867  0.24867  0.25383  1.0000
  Hg  Hg3       1.0  0.75133  0.75133  0.74617  1.0000
  Hg  Hg4       1.0  0.37068  0.62932  0.50000  1.0000
  Hg  Hg5       1.0  0.99998  0.49998  0.75000  1.0000
  Hg  Hg6       1.0  0.87068  0.12932  0.00000  1.0000
  Hg  Hg7       1.0  0.00002  0.50002  0.25000  1.0000
  Hg  Hg8       1.0  0.25133  0.25133  0.75383  1.0000
  Hg  Hg9       1.0  0.62932  0.37068  0.50000  1.0000
  Hg  Hg10      1.0  0.12932  0.87068  0.00000  1.0000
  Hg  Hg11      1.0  0.50002  0.00002  0.25000  1.0000
  Hg  Hg12      1.0  0.49998  0.99998  0.75000  1.0000
