data_image0
_chemical_formula_structural       Cl9Zr13
_chemical_formula_sum              "Cl9 Zr13"
_cell_length_a       10.2495
_cell_length_b       10.2495
_cell_length_c       5.62352
_cell_angle_alpha    90
_cell_angle_beta     90
_cell_angle_gamma    120

_space_group_name_H-M_alt    "P 1"
_space_group_IT_number       1

loop_
  _space_group_symop_operation_xyz
  'x, y, z'

loop_
  _atom_site_type_symbol
  _atom_site_label
  _atom_site_symmetry_multiplicity
  _atom_site_fract_x
  _atom_site_fract_y
  _atom_site_fract_z
  _atom_site_occupancy
  Cl  Cl1       1.0  0.00000  0.00000  0.50000  1.0000
  Cl  Cl2       1.0  0.33333  0.66667  0.00213  1.0000
  Cl  Cl3       1.0  0.66667  0.33333  0.99787  1.0000
  Cl  Cl4       1.0  0.20885  0.79115  0.48918  1.0000
  Cl  Cl5       1.0  0.20885  0.41771  0.48918  1.0000
  Cl  Cl6       1.0  0.58229  0.79115  0.48918  1.0000
  Cl  Cl7       1.0  0.41771  0.20885  0.51082  1.0000
  Cl  Cl8       1.0  0.79115  0.58229  0.51082  1.0000
  Cl  Cl9       1.0  0.79115  0.20885  0.51082  1.0000
  Zr  Zr1       1.0  0.00000  0.00000  0.00000  1.0000
  Zr  Zr2       1.0  0.50000  0.00000  0.00000  1.0000
  Zr  Zr3       1.0  0.00000  0.50000  0.00000  1.0000
  Zr  Zr4       1.0  0.50000  0.50000  0.00000  1.0000
  Zr  Zr5       1.0  0.50000  0.00000  0.50000  1.0000
  Zr  Zr6       1.0  0.00000  0.50000  0.50000  1.0000
  Zr  Zr7       1.0  0.50000  0.50000  0.50000  1.0000
  Zr  Zr8       1.0  0.16817  0.83183  0.93972  1.0000
  Zr  Zr9       1.0  0.16817  0.33635  0.93972  1.0000
  Zr  Zr10      1.0  0.66365  0.83183  0.93972  1.0000
  Zr  Zr11      1.0  0.33635  0.16817  0.06028  1.0000
  Zr  Zr12      1.0  0.83183  0.66365  0.06028  1.0000
  Zr  Zr13      1.0  0.83183  0.16817  0.06028  1.0000
