data_image0
_chemical_formula_structural       Zr4I12
_chemical_formula_sum              "Zr4 I12"
_cell_length_a       7.88209
_cell_length_b       7.88209
_cell_length_c       10.4066
_cell_angle_alpha    90
_cell_angle_beta     90
_cell_angle_gamma    126.403

_space_group_name_H-M_alt    "P 1"
_space_group_IT_number       1

loop_
  _space_group_symop_operation_xyz
  'x, y, z'

loop_
  _atom_site_type_symbol
  _atom_site_label
  _atom_site_symmetry_multiplicity
  _atom_site_fract_x
  _atom_site_fract_y
  _atom_site_fract_z
  _atom_site_occupancy
  Zr  Zr1       1.0  0.67217  0.32783  0.00000  1.0000
  Zr  Zr2       1.0  0.32783  0.67217  0.00000  1.0000
  Zr  Zr3       1.0  0.17217  0.82783  0.50000  1.0000
  Zr  Zr4       1.0  0.82783  0.17217  0.50000  1.0000
  I   I1        1.0  0.50144  0.50144  0.16764  1.0000
  I   I2        1.0  0.00144  0.00144  0.33236  1.0000
  I   I3        1.0  0.99856  0.99856  0.66764  1.0000
  I   I4        1.0  0.37525  0.62475  0.50000  1.0000
  I   I5        1.0  0.00114  0.50114  0.75000  1.0000
  I   I6        1.0  0.87525  0.12475  0.00000  1.0000
  I   I7        1.0  0.99886  0.49886  0.25000  1.0000
  I   I8        1.0  0.49856  0.49856  0.83236  1.0000
  I   I9        1.0  0.62475  0.37525  0.50000  1.0000
  I   I10       1.0  0.12475  0.87525  0.00000  1.0000
  I   I11       1.0  0.49886  0.99886  0.25000  1.0000
  I   I12       1.0  0.50114  0.00114  0.75000  1.0000
