data_image0
_chemical_formula_structural       Zr3Br8
_chemical_formula_sum              "Zr3 Br8"
_cell_length_a       6.9316
_cell_length_b       6.9316
_cell_length_c       6.9316
_cell_angle_alpha    92.9657
_cell_angle_beta     92.9657
_cell_angle_gamma    92.9657

_space_group_name_H-M_alt    "P 1"
_space_group_IT_number       1

loop_
  _space_group_symop_operation_xyz
  'x, y, z'

loop_
  _atom_site_type_symbol
  _atom_site_label
  _atom_site_symmetry_multiplicity
  _atom_site_fract_x
  _atom_site_fract_y
  _atom_site_fract_z
  _atom_site_occupancy
  Zr  Zr1       1.0  0.50000  0.00000  0.50000  1.0000
  Zr  Zr2       1.0  0.00000  0.50000  0.50000  1.0000
  Zr  Zr3       1.0  0.50000  0.50000  0.00000  1.0000
  Br  Br1       1.0  0.63018  0.85049  0.16596  1.0000
  Br  Br2       1.0  0.85049  0.16596  0.63018  1.0000
  Br  Br3       1.0  0.16596  0.63018  0.85049  1.0000
  Br  Br4       1.0  0.66186  0.66186  0.66186  1.0000
  Br  Br5       1.0  0.33814  0.33814  0.33814  1.0000
  Br  Br6       1.0  0.83404  0.36982  0.14951  1.0000
  Br  Br7       1.0  0.14951  0.83404  0.36982  1.0000
  Br  Br8       1.0  0.36982  0.14951  0.83404  1.0000
