data_image0
_chemical_formula_structural       Zr2Se8
_chemical_formula_sum              "Zr2 Se8"
_cell_length_a       6.03909
_cell_length_b       6.03909
_cell_length_c       7.03323
_cell_angle_alpha    90
_cell_angle_beta     90
_cell_angle_gamma    90

_space_group_name_H-M_alt    "P 1"
_space_group_IT_number       1

loop_
  _space_group_symop_operation_xyz
  'x, y, z'

loop_
  _atom_site_type_symbol
  _atom_site_label
  _atom_site_symmetry_multiplicity
  _atom_site_fract_x
  _atom_site_fract_y
  _atom_site_fract_z
  _atom_site_occupancy
  Zr  Zr1       1.0  0.00000  0.00000  0.75000  1.0000
  Zr  Zr2       1.0  0.00000  0.00000  0.25000  1.0000
  Se  Se1       1.0  0.33765  0.12769  0.50000  1.0000
  Se  Se2       1.0  0.66235  0.87231  0.50000  1.0000
  Se  Se3       1.0  0.33765  0.87231  0.00000  1.0000
  Se  Se4       1.0  0.66235  0.12769  0.00000  1.0000
  Se  Se5       1.0  0.12769  0.66235  0.50000  1.0000
  Se  Se6       1.0  0.87231  0.33765  0.50000  1.0000
  Se  Se7       1.0  0.87231  0.66235  0.00000  1.0000
  Se  Se8       1.0  0.12769  0.33765  0.00000  1.0000
