data_image0
_chemical_formula_structural       Zr8F16
_chemical_formula_sum              "Zr8 F16"
_cell_length_a       5.97015
_cell_length_b       7.00617
_cell_length_c       8.07064
_cell_angle_alpha    90
_cell_angle_beta     90
_cell_angle_gamma    90

_space_group_name_H-M_alt    "P 1"
_space_group_IT_number       1

loop_
  _space_group_symop_operation_xyz
  'x, y, z'

loop_
  _atom_site_type_symbol
  _atom_site_label
  _atom_site_symmetry_multiplicity
  _atom_site_fract_x
  _atom_site_fract_y
  _atom_site_fract_z
  _atom_site_occupancy
  Zr  Zr1       1.0  0.68930  0.80493  0.05146  1.0000
  Zr  Zr2       1.0  0.81070  0.69507  0.55146  1.0000
  Zr  Zr3       1.0  0.81070  0.30493  0.94854  1.0000
  Zr  Zr4       1.0  0.68930  0.19507  0.44854  1.0000
  Zr  Zr5       1.0  0.31070  0.19507  0.94854  1.0000
  Zr  Zr6       1.0  0.18930  0.30493  0.44854  1.0000
  Zr  Zr7       1.0  0.18930  0.69507  0.05146  1.0000
  Zr  Zr8       1.0  0.31070  0.80493  0.55146  1.0000
  F   F1        1.0  0.19361  0.50000  0.25000  1.0000
  F   F2        1.0  0.30639  0.00000  0.75000  1.0000
  F   F3        1.0  0.80639  0.50000  0.75000  1.0000
  F   F4        1.0  0.69361  0.00000  0.25000  1.0000
  F   F5        1.0  0.27597  0.82457  0.29087  1.0000
  F   F6        1.0  0.22403  0.67543  0.79087  1.0000
  F   F7        1.0  0.22403  0.32457  0.70913  1.0000
  F   F8        1.0  0.27597  0.17543  0.20913  1.0000
  F   F9        1.0  0.72403  0.17543  0.70913  1.0000
  F   F10       1.0  0.77597  0.32457  0.20913  1.0000
  F   F11       1.0  0.77597  0.67543  0.29087  1.0000
  F   F12       1.0  0.72403  0.82457  0.79087  1.0000
  F   F13       1.0  0.50000  0.50000  0.00000  1.0000
  F   F14       1.0  0.00000  0.00000  0.50000  1.0000
  F   F15       1.0  0.00000  0.00000  0.00000  1.0000
  F   F16       1.0  0.50000  0.50000  0.50000  1.0000
