data_image0
_chemical_formula_structural       Pd2Au2
_chemical_formula_sum              "Pd2 Au2"
_cell_length_a       4.97729
_cell_length_b       4.97729
_cell_length_c       4.97729
_cell_angle_alpha    132.311
_cell_angle_beta     131.463
_cell_angle_gamma    70.4098

_space_group_name_H-M_alt    "P 1"
_space_group_IT_number       1

loop_
  _space_group_symop_operation_xyz
  'x, y, z'

loop_
  _atom_site_type_symbol
  _atom_site_label
  _atom_site_symmetry_multiplicity
  _atom_site_fract_x
  _atom_site_fract_y
  _atom_site_fract_z
  _atom_site_occupancy
  Pd  Pd1       1.0  0.37489  0.62489  0.75000  1.0000
  Pd  Pd2       1.0  0.62511  0.37511  0.25000  1.0000
  Au  Au1       1.0  0.12485  0.87485  0.25000  1.0000
  Au  Au2       1.0  0.87515  0.12515  0.75000  1.0000
