data_image0
_chemical_formula_structural       Zr4Cl12
_chemical_formula_sum              "Zr4 Cl12"
_cell_length_a       6.81321
_cell_length_b       6.81321
_cell_length_c       9.16344
_cell_angle_alpha    90
_cell_angle_beta     90
_cell_angle_gamma    127.475

_space_group_name_H-M_alt    "P 1"
_space_group_IT_number       1

loop_
  _space_group_symop_operation_xyz
  'x, y, z'

loop_
  _atom_site_type_symbol
  _atom_site_label
  _atom_site_symmetry_multiplicity
  _atom_site_fract_x
  _atom_site_fract_y
  _atom_site_fract_z
  _atom_site_occupancy
  Zr  Zr1       1.0  0.67163  0.32837  0.00000  1.0000
  Zr  Zr2       1.0  0.32837  0.67163  0.00000  1.0000
  Zr  Zr3       1.0  0.17163  0.82837  0.50000  1.0000
  Zr  Zr4       1.0  0.82837  0.17163  0.50000  1.0000
  Cl  Cl1       1.0  0.50368  0.50368  0.16705  1.0000
  Cl  Cl2       1.0  0.00368  0.00368  0.33295  1.0000
  Cl  Cl3       1.0  0.99632  0.99632  0.66705  1.0000
  Cl  Cl4       1.0  0.37427  0.62573  0.50000  1.0000
  Cl  Cl5       1.0  0.99936  0.49936  0.75000  1.0000
  Cl  Cl6       1.0  0.87427  0.12573  0.00000  1.0000
  Cl  Cl7       1.0  0.00064  0.50064  0.25000  1.0000
  Cl  Cl8       1.0  0.49632  0.49632  0.83295  1.0000
  Cl  Cl9       1.0  0.62573  0.37427  0.50000  1.0000
  Cl  Cl10      1.0  0.12573  0.87427  0.00000  1.0000
  Cl  Cl11      1.0  0.50064  0.00064  0.25000  1.0000
  Cl  Cl12      1.0  0.49936  0.99936  0.75000  1.0000
