data_image0
_chemical_formula_structural       Se10Zr6
_chemical_formula_sum              "Se10 Zr6"
_cell_length_a       8.27652
_cell_length_b       8.27652
_cell_length_c       8.27652
_cell_angle_alpha    128.607
_cell_angle_beta     128.607
_cell_angle_gamma    75.6444

_space_group_name_H-M_alt    "P 1"
_space_group_IT_number       1

loop_
  _space_group_symop_operation_xyz
  'x, y, z'

loop_
  _atom_site_type_symbol
  _atom_site_label
  _atom_site_symmetry_multiplicity
  _atom_site_fract_x
  _atom_site_fract_y
  _atom_site_fract_z
  _atom_site_occupancy
  Se  Se1       1.0  0.51787  0.68363  0.50000  1.0000
  Se  Se2       1.0  0.48213  0.31637  0.50000  1.0000
  Se  Se3       1.0  0.50000  0.50000  0.00000  1.0000
  Se  Se4       1.0  0.00000  0.00000  0.00000  1.0000
  Se  Se5       1.0  0.18363  0.01787  0.50000  1.0000
  Se  Se6       1.0  0.01787  0.51787  0.83424  1.0000
  Se  Se7       1.0  0.68363  0.18363  0.16576  1.0000
  Se  Se8       1.0  0.31637  0.81637  0.83424  1.0000
  Se  Se9       1.0  0.98213  0.48213  0.16576  1.0000
  Se  Se10      1.0  0.81637  0.98213  0.50000  1.0000
  Zr  Zr1       1.0  0.85454  0.64546  0.50000  1.0000
  Zr  Zr2       1.0  0.64546  0.14546  0.79092  1.0000
  Zr  Zr3       1.0  0.35454  0.85454  0.20908  1.0000
  Zr  Zr4       1.0  0.14546  0.35454  0.50000  1.0000
  Zr  Zr5       1.0  0.25000  0.25000  0.00000  1.0000
  Zr  Zr6       1.0  0.75000  0.75000  0.00000  1.0000
