data_image0
_chemical_formula_structural       I10Zr6
_chemical_formula_sum              "I10 Zr6"
_cell_length_a       9.10069
_cell_length_b       9.10069
_cell_length_c       9.10069
_cell_angle_alpha    126.425
_cell_angle_beta     126.425
_cell_angle_gamma    79.1913

_space_group_name_H-M_alt    "P 1"
_space_group_IT_number       1

loop_
  _space_group_symop_operation_xyz
  'x, y, z'

loop_
  _atom_site_type_symbol
  _atom_site_label
  _atom_site_symmetry_multiplicity
  _atom_site_fract_x
  _atom_site_fract_y
  _atom_site_fract_z
  _atom_site_occupancy
  I   I1        1.0  0.51970  0.69752  0.50000  1.0000
  I   I2        1.0  0.48030  0.30248  0.50000  1.0000
  I   I3        1.0  0.50000  0.50000  0.00000  1.0000
  I   I4        1.0  0.00000  0.00000  0.00000  1.0000
  I   I5        1.0  0.19752  0.01970  0.50000  1.0000
  I   I6        1.0  0.01970  0.51970  0.82218  1.0000
  I   I7        1.0  0.69752  0.19752  0.17782  1.0000
  I   I8        1.0  0.30248  0.80248  0.82218  1.0000
  I   I9        1.0  0.98030  0.48030  0.17782  1.0000
  I   I10       1.0  0.80248  0.98030  0.50000  1.0000
  Zr  Zr1       1.0  0.86625  0.63375  0.50000  1.0000
  Zr  Zr2       1.0  0.63375  0.13375  0.76751  1.0000
  Zr  Zr3       1.0  0.36625  0.86625  0.23249  1.0000
  Zr  Zr4       1.0  0.13375  0.36625  0.50000  1.0000
  Zr  Zr5       1.0  0.25000  0.25000  0.00000  1.0000
  Zr  Zr6       1.0  0.75000  0.75000  0.00000  1.0000
