data_image0
_chemical_formula_structural       Hg9Zr13
_chemical_formula_sum              "Hg9 Zr13"
_cell_length_a       9.85506
_cell_length_b       9.85506
_cell_length_c       6.02959
_cell_angle_alpha    90
_cell_angle_beta     90
_cell_angle_gamma    120

_space_group_name_H-M_alt    "P 1"
_space_group_IT_number       1

loop_
  _space_group_symop_operation_xyz
  'x, y, z'

loop_
  _atom_site_type_symbol
  _atom_site_label
  _atom_site_symmetry_multiplicity
  _atom_site_fract_x
  _atom_site_fract_y
  _atom_site_fract_z
  _atom_site_occupancy
  Hg  Hg1       1.0  0.00000  0.00000  0.50000  1.0000
  Hg  Hg2       1.0  0.33333  0.66667  0.76352  1.0000
  Hg  Hg3       1.0  0.66667  0.33333  0.23648  1.0000
  Hg  Hg4       1.0  0.19314  0.80686  0.24171  1.0000
  Hg  Hg5       1.0  0.19314  0.38628  0.24171  1.0000
  Hg  Hg6       1.0  0.61372  0.80686  0.24171  1.0000
  Hg  Hg7       1.0  0.38628  0.19314  0.75829  1.0000
  Hg  Hg8       1.0  0.80686  0.61372  0.75829  1.0000
  Hg  Hg9       1.0  0.80686  0.19314  0.75829  1.0000
  Zr  Zr1       1.0  0.00000  0.00000  0.00000  1.0000
  Zr  Zr2       1.0  0.50000  0.00000  0.00000  1.0000
  Zr  Zr3       1.0  0.00000  0.50000  0.00000  1.0000
  Zr  Zr4       1.0  0.50000  0.50000  0.00000  1.0000
  Zr  Zr5       1.0  0.50000  0.00000  0.50000  1.0000
  Zr  Zr6       1.0  0.00000  0.50000  0.50000  1.0000
  Zr  Zr7       1.0  0.50000  0.50000  0.50000  1.0000
  Zr  Zr8       1.0  0.15617  0.84383  0.74025  1.0000
  Zr  Zr9       1.0  0.15617  0.31235  0.74025  1.0000
  Zr  Zr10      1.0  0.68765  0.84383  0.74025  1.0000
  Zr  Zr11      1.0  0.31235  0.15617  0.25975  1.0000
  Zr  Zr12      1.0  0.84383  0.68765  0.25975  1.0000
  Zr  Zr13      1.0  0.84383  0.15617  0.25975  1.0000
