data_image0
_chemical_formula_structural       Zr6I6
_chemical_formula_sum              "Zr6 I6"
_cell_length_a       3.94045
_cell_length_b       3.94045
_cell_length_c       24.7376
_cell_angle_alpha    90
_cell_angle_beta     90
_cell_angle_gamma    91.4388

_space_group_name_H-M_alt    "P 1"
_space_group_IT_number       1

loop_
  _space_group_symop_operation_xyz
  'x, y, z'

loop_
  _atom_site_type_symbol
  _atom_site_label
  _atom_site_symmetry_multiplicity
  _atom_site_fract_x
  _atom_site_fract_y
  _atom_site_fract_z
  _atom_site_occupancy
  Zr  Zr1       1.0  0.43909  0.56091  0.14621  1.0000
  Zr  Zr2       1.0  0.56091  0.43909  0.85379  1.0000
  Zr  Zr3       1.0  0.56091  0.43909  0.64621  1.0000
  Zr  Zr4       1.0  0.43909  0.56091  0.35379  1.0000
  Zr  Zr5       1.0  0.30034  0.69966  0.75000  1.0000
  Zr  Zr6       1.0  0.69966  0.30034  0.25000  1.0000
  I   I1        1.0  0.80201  0.19799  0.75000  1.0000
  I   I2        1.0  0.19799  0.80201  0.25000  1.0000
  I   I3        1.0  0.07143  0.92857  0.58877  1.0000
  I   I4        1.0  0.92857  0.07143  0.08877  1.0000
  I   I5        1.0  0.07143  0.92857  0.91123  1.0000
  I   I6        1.0  0.92857  0.07143  0.41123  1.0000
