data_image0
_chemical_formula_structural       Zr8Hg12
_chemical_formula_sum              "Zr8 Hg12"
_cell_length_a       3.30432
_cell_length_b       11.6992
_cell_length_c       12.2522
_cell_angle_alpha    90
_cell_angle_beta     90
_cell_angle_gamma    90

_space_group_name_H-M_alt    "P 1"
_space_group_IT_number       1

loop_
  _space_group_symop_operation_xyz
  'x, y, z'

loop_
  _atom_site_type_symbol
  _atom_site_label
  _atom_site_symmetry_multiplicity
  _atom_site_fract_x
  _atom_site_fract_y
  _atom_site_fract_z
  _atom_site_occupancy
  Zr  Zr1       1.0  0.25000  0.96433  0.89740  1.0000
  Zr  Zr2       1.0  0.75000  0.03567  0.10260  1.0000
  Zr  Zr3       1.0  0.75000  0.46433  0.60260  1.0000
  Zr  Zr4       1.0  0.25000  0.53567  0.39740  1.0000
  Zr  Zr5       1.0  0.25000  0.11169  0.49004  1.0000
  Zr  Zr6       1.0  0.75000  0.88831  0.50996  1.0000
  Zr  Zr7       1.0  0.75000  0.61169  0.00996  1.0000
  Zr  Zr8       1.0  0.25000  0.38831  0.99004  1.0000
  Hg  Hg1       1.0  0.25000  0.27452  0.70325  1.0000
  Hg  Hg2       1.0  0.75000  0.72548  0.29675  1.0000
  Hg  Hg3       1.0  0.75000  0.77452  0.79675  1.0000
  Hg  Hg4       1.0  0.25000  0.22548  0.20325  1.0000
  Hg  Hg5       1.0  0.25000  0.95995  0.30326  1.0000
  Hg  Hg6       1.0  0.75000  0.04005  0.69674  1.0000
  Hg  Hg7       1.0  0.75000  0.45995  0.19674  1.0000
  Hg  Hg8       1.0  0.25000  0.54005  0.80326  1.0000
  Hg  Hg9       1.0  0.25000  0.81054  0.09000  1.0000
  Hg  Hg10      1.0  0.75000  0.18946  0.91000  1.0000
  Hg  Hg11      1.0  0.75000  0.31054  0.41000  1.0000
  Hg  Hg12      1.0  0.25000  0.68946  0.59000  1.0000
