data_image0
_chemical_formula_structural       Zr3S8
_chemical_formula_sum              "Zr3 S8"
_cell_length_a       6.3302
_cell_length_b       6.3302
_cell_length_c       6.3302
_cell_angle_alpha    88.7085
_cell_angle_beta     88.7085
_cell_angle_gamma    88.7085

_space_group_name_H-M_alt    "P 1"
_space_group_IT_number       1

loop_
  _space_group_symop_operation_xyz
  'x, y, z'

loop_
  _atom_site_type_symbol
  _atom_site_label
  _atom_site_symmetry_multiplicity
  _atom_site_fract_x
  _atom_site_fract_y
  _atom_site_fract_z
  _atom_site_occupancy
  Zr  Zr1       1.0  0.50000  0.00000  0.50000  1.0000
  Zr  Zr2       1.0  0.00000  0.50000  0.50000  1.0000
  Zr  Zr3       1.0  0.50000  0.50000  0.00000  1.0000
  S   S1        1.0  0.57105  0.89101  0.11642  1.0000
  S   S2        1.0  0.89101  0.11642  0.57105  1.0000
  S   S3        1.0  0.11642  0.57105  0.89101  1.0000
  S   S4        1.0  0.64697  0.64697  0.64697  1.0000
  S   S5        1.0  0.35303  0.35303  0.35303  1.0000
  S   S6        1.0  0.88358  0.42895  0.10899  1.0000
  S   S7        1.0  0.10899  0.88358  0.42895  1.0000
  S   S8        1.0  0.42895  0.10899  0.88358  1.0000
