data_image0
_chemical_formula_structural       Br8Zr12
_chemical_formula_sum              "Br8 Zr12"
_cell_length_a       6.03229
_cell_length_b       6.03229
_cell_length_c       15.4415
_cell_angle_alpha    90
_cell_angle_beta     90
_cell_angle_gamma    120

_space_group_name_H-M_alt    "P 1"
_space_group_IT_number       1

loop_
  _space_group_symop_operation_xyz
  'x, y, z'

loop_
  _atom_site_type_symbol
  _atom_site_label
  _atom_site_symmetry_multiplicity
  _atom_site_fract_x
  _atom_site_fract_y
  _atom_site_fract_z
  _atom_site_occupancy
  Br  Br1       1.0  0.00000  0.00000  0.25000  1.0000
  Br  Br2       1.0  0.00000  0.00000  0.75000  1.0000
  Br  Br3       1.0  0.33333  0.66667  0.25000  1.0000
  Br  Br4       1.0  0.66667  0.33333  0.75000  1.0000
  Br  Br5       1.0  0.33333  0.66667  0.64215  1.0000
  Br  Br6       1.0  0.66667  0.33333  0.14215  1.0000
  Br  Br7       1.0  0.66667  0.33333  0.35785  1.0000
  Br  Br8       1.0  0.33333  0.66667  0.85785  1.0000
  Zr  Zr1       1.0  0.16746  0.33491  0.41708  1.0000
  Zr  Zr2       1.0  0.16746  0.83254  0.41708  1.0000
  Zr  Zr3       1.0  0.66509  0.83254  0.41708  1.0000
  Zr  Zr4       1.0  0.83254  0.16746  0.91708  1.0000
  Zr  Zr5       1.0  0.33491  0.16746  0.91708  1.0000
  Zr  Zr6       1.0  0.83254  0.66509  0.91708  1.0000
  Zr  Zr7       1.0  0.83254  0.66509  0.58292  1.0000
  Zr  Zr8       1.0  0.83254  0.16746  0.58292  1.0000
  Zr  Zr9       1.0  0.33491  0.16746  0.58292  1.0000
  Zr  Zr10      1.0  0.16746  0.83254  0.08292  1.0000
  Zr  Zr11      1.0  0.66509  0.83254  0.08292  1.0000
  Zr  Zr12      1.0  0.16746  0.33491  0.08292  1.0000
