data_image0
_chemical_formula_structural       Zr2Cl4
_chemical_formula_sum              "Zr2 Cl4"
_cell_length_a       3.22453
_cell_length_b       6.58829
_cell_length_c       6.60712
_cell_angle_alpha    90
_cell_angle_beta     90
_cell_angle_gamma    90

_space_group_name_H-M_alt    "P 1"
_space_group_IT_number       1

loop_
  _space_group_symop_operation_xyz
  'x, y, z'

loop_
  _atom_site_type_symbol
  _atom_site_label
  _atom_site_symmetry_multiplicity
  _atom_site_fract_x
  _atom_site_fract_y
  _atom_site_fract_z
  _atom_site_occupancy
  Zr  Zr1       1.0  0.00000  0.00000  0.00000  1.0000
  Zr  Zr2       1.0  0.50000  0.50000  0.50000  1.0000
  Cl  Cl1       1.0  0.00000  0.27199  0.28476  1.0000
  Cl  Cl2       1.0  0.00000  0.72801  0.71524  1.0000
  Cl  Cl3       1.0  0.50000  0.77199  0.21524  1.0000
  Cl  Cl4       1.0  0.50000  0.22801  0.78476  1.0000
