data_image0
_chemical_formula_structural       Zr3F8
_chemical_formula_sum              "Zr3 F8"
_cell_length_a       5.49061
_cell_length_b       5.49061
_cell_length_c       5.49061
_cell_angle_alpha    93.2106
_cell_angle_beta     93.2106
_cell_angle_gamma    93.2106

_space_group_name_H-M_alt    "P 1"
_space_group_IT_number       1

loop_
  _space_group_symop_operation_xyz
  'x, y, z'

loop_
  _atom_site_type_symbol
  _atom_site_label
  _atom_site_symmetry_multiplicity
  _atom_site_fract_x
  _atom_site_fract_y
  _atom_site_fract_z
  _atom_site_occupancy
  Zr  Zr1       1.0  0.50000  0.00000  0.50000  1.0000
  Zr  Zr2       1.0  0.00000  0.50000  0.50000  1.0000
  Zr  Zr3       1.0  0.50000  0.50000  0.00000  1.0000
  F   F1        1.0  0.62084  0.85794  0.15883  1.0000
  F   F2        1.0  0.85794  0.15883  0.62084  1.0000
  F   F3        1.0  0.15883  0.62084  0.85794  1.0000
  F   F4        1.0  0.68947  0.68947  0.68947  1.0000
  F   F5        1.0  0.31053  0.31053  0.31053  1.0000
  F   F6        1.0  0.84117  0.37916  0.14206  1.0000
  F   F7        1.0  0.14206  0.84117  0.37916  1.0000
  F   F8        1.0  0.37916  0.14206  0.84117  1.0000
