data_image0
_chemical_formula_structural       S10Zr6
_chemical_formula_sum              "S10 Zr6"
_cell_length_a       7.85767
_cell_length_b       7.85767
_cell_length_c       7.85767
_cell_angle_alpha    128.285
_cell_angle_beta     128.285
_cell_angle_gamma    76.1631

_space_group_name_H-M_alt    "P 1"
_space_group_IT_number       1

loop_
  _space_group_symop_operation_xyz
  'x, y, z'

loop_
  _atom_site_type_symbol
  _atom_site_label
  _atom_site_symmetry_multiplicity
  _atom_site_fract_x
  _atom_site_fract_y
  _atom_site_fract_z
  _atom_site_occupancy
  S   S1        1.0  0.51573  0.68681  0.50000  1.0000
  S   S2        1.0  0.48427  0.31319  0.50000  1.0000
  S   S3        1.0  0.50000  0.50000  0.00000  1.0000
  S   S4        1.0  0.00000  0.00000  0.00000  1.0000
  S   S5        1.0  0.18681  0.01573  0.50000  1.0000
  S   S6        1.0  0.01573  0.51573  0.82892  1.0000
  S   S7        1.0  0.68681  0.18681  0.17108  1.0000
  S   S8        1.0  0.31319  0.81319  0.82892  1.0000
  S   S9        1.0  0.98427  0.48427  0.17108  1.0000
  S   S10       1.0  0.81319  0.98427  0.50000  1.0000
  Zr  Zr1       1.0  0.85006  0.64994  0.50000  1.0000
  Zr  Zr2       1.0  0.64994  0.14994  0.79988  1.0000
  Zr  Zr3       1.0  0.35006  0.85006  0.20012  1.0000
  Zr  Zr4       1.0  0.14994  0.35006  0.50000  1.0000
  Zr  Zr5       1.0  0.25000  0.25000  0.00000  1.0000
  Zr  Zr6       1.0  0.75000  0.75000  0.00000  1.0000
