data_image0
_chemical_formula_structural       ZrF4
_chemical_formula_sum              "Zr1 F4"
_cell_length_a       4.20391
_cell_length_b       4.20391
_cell_length_c       4.20391
_cell_angle_alpha    105.009
_cell_angle_beta     105.009
_cell_angle_gamma    118.819

_space_group_name_H-M_alt    "P 1"
_space_group_IT_number       1

loop_
  _space_group_symop_operation_xyz
  'x, y, z'

loop_
  _atom_site_type_symbol
  _atom_site_label
  _atom_site_symmetry_multiplicity
  _atom_site_fract_x
  _atom_site_fract_y
  _atom_site_fract_z
  _atom_site_occupancy
  Zr  Zr1       1.0  0.00000  0.00000  0.00000  1.0000
  F   F1        1.0  0.65517  0.80278  0.45794  1.0000
  F   F2        1.0  0.34483  0.19722  0.54206  1.0000
  F   F3        1.0  0.19722  0.65517  0.85239  1.0000
  F   F4        1.0  0.80278  0.34483  0.14761  1.0000
