data_image0
_chemical_formula_structural       Pd2Ag2
_chemical_formula_sum              "Pd2 Ag2"
_cell_length_a       2.78787
_cell_length_b       2.78787
_cell_length_c       9.44136
_cell_angle_alpha    90
_cell_angle_beta     90
_cell_angle_gamma    65.1294

_space_group_name_H-M_alt    "P 1"
_space_group_IT_number       1

loop_
  _space_group_symop_operation_xyz
  'x, y, z'

loop_
  _atom_site_type_symbol
  _atom_site_label
  _atom_site_symmetry_multiplicity
  _atom_site_fract_x
  _atom_site_fract_y
  _atom_site_fract_z
  _atom_site_occupancy
  Pd  Pd1       1.0  0.50000  0.50000  0.50000  1.0000
  Pd  Pd2       1.0  0.50000  0.50000  0.00000  1.0000
  Ag  Ag1       1.0  0.99944  0.00056  0.25000  1.0000
  Ag  Ag2       1.0  0.00056  0.99944  0.75000  1.0000
