data_image0
_chemical_formula_structural       Pd3Ag3
_chemical_formula_sum              "Pd3 Ag3"
_cell_length_a       4.93145
_cell_length_b       4.93145
_cell_length_c       4.7256
_cell_angle_alpha    90
_cell_angle_beta     90
_cell_angle_gamma    119.646

_space_group_name_H-M_alt    "P 1"
_space_group_IT_number       1

loop_
  _space_group_symop_operation_xyz
  'x, y, z'

loop_
  _atom_site_type_symbol
  _atom_site_label
  _atom_site_symmetry_multiplicity
  _atom_site_fract_x
  _atom_site_fract_y
  _atom_site_fract_z
  _atom_site_occupancy
  Pd  Pd1       1.0  0.99703  0.66818  0.00000  1.0000
  Pd  Pd2       1.0  0.66818  0.99703  0.00000  1.0000
  Pd  Pd3       1.0  0.99784  0.99784  0.50000  1.0000
  Ag  Ag1       1.0  0.32749  0.32749  0.00000  1.0000
  Ag  Ag2       1.0  0.33604  0.67342  0.50000  1.0000
  Ag  Ag3       1.0  0.67342  0.33604  0.50000  1.0000
