data_image0
_chemical_formula_structural       I9Zr13
_chemical_formula_sum              "I9 Zr13"
_cell_length_a       10.4125
_cell_length_b       10.4125
_cell_length_c       5.78758
_cell_angle_alpha    90
_cell_angle_beta     90
_cell_angle_gamma    120

_space_group_name_H-M_alt    "P 1"
_space_group_IT_number       1

loop_
  _space_group_symop_operation_xyz
  'x, y, z'

loop_
  _atom_site_type_symbol
  _atom_site_label
  _atom_site_symmetry_multiplicity
  _atom_site_fract_x
  _atom_site_fract_y
  _atom_site_fract_z
  _atom_site_occupancy
  I   I1        1.0  0.00000  0.00000  0.50000  1.0000
  I   I2        1.0  0.33333  0.66667  0.78753  1.0000
  I   I3        1.0  0.66667  0.33333  0.21247  1.0000
  I   I4        1.0  0.20050  0.79950  0.27866  1.0000
  I   I5        1.0  0.20050  0.40101  0.27866  1.0000
  I   I6        1.0  0.59899  0.79950  0.27866  1.0000
  I   I7        1.0  0.40101  0.20050  0.72134  1.0000
  I   I8        1.0  0.79950  0.59899  0.72134  1.0000
  I   I9        1.0  0.79950  0.20050  0.72134  1.0000
  Zr  Zr1       1.0  0.00000  0.00000  0.00000  1.0000
  Zr  Zr2       1.0  0.50000  0.00000  0.00000  1.0000
  Zr  Zr3       1.0  0.00000  0.50000  0.00000  1.0000
  Zr  Zr4       1.0  0.50000  0.50000  0.00000  1.0000
  Zr  Zr5       1.0  0.50000  0.00000  0.50000  1.0000
  Zr  Zr6       1.0  0.00000  0.50000  0.50000  1.0000
  Zr  Zr7       1.0  0.50000  0.50000  0.50000  1.0000
  Zr  Zr8       1.0  0.15526  0.84474  0.78609  1.0000
  Zr  Zr9       1.0  0.15526  0.31052  0.78609  1.0000
  Zr  Zr10      1.0  0.68948  0.84474  0.78609  1.0000
  Zr  Zr11      1.0  0.31052  0.15526  0.21391  1.0000
  Zr  Zr12      1.0  0.84474  0.68948  0.21391  1.0000
  Zr  Zr13      1.0  0.84474  0.15526  0.21391  1.0000
