data_image0
_chemical_formula_structural       Zr9Se9
_chemical_formula_sum              "Zr9 Se9"
_cell_length_a       8.24443
_cell_length_b       8.24443
_cell_length_c       5.84324
_cell_angle_alpha    90
_cell_angle_beta     90
_cell_angle_gamma    120

_space_group_name_H-M_alt    "P 1"
_space_group_IT_number       1

loop_
  _space_group_symop_operation_xyz
  'x, y, z'

loop_
  _atom_site_type_symbol
  _atom_site_label
  _atom_site_symmetry_multiplicity
  _atom_site_fract_x
  _atom_site_fract_y
  _atom_site_fract_z
  _atom_site_occupancy
  Zr  Zr1       1.0  1.00000  0.66686  0.22552  1.0000
  Zr  Zr2       1.0  0.66686  1.00000  0.22552  1.0000
  Zr  Zr3       1.0  0.33314  0.33314  0.22552  1.0000
  Zr  Zr4       1.0  0.33350  1.00000  0.89216  1.0000
  Zr  Zr5       1.0  0.66650  0.66650  0.89216  1.0000
  Zr  Zr6       1.0  1.00000  0.33350  0.89216  1.0000
  Zr  Zr7       1.0  0.33333  0.66667  0.55914  1.0000
  Zr  Zr8       1.0  0.00000  0.00000  0.55825  1.0000
  Zr  Zr9       1.0  0.66667  0.33333  0.55914  1.0000
  Se  Se1       1.0  1.00000  0.66705  0.72542  1.0000
  Se  Se2       1.0  0.66705  1.00000  0.72542  1.0000
  Se  Se3       1.0  0.33295  0.33295  0.72542  1.0000
  Se  Se4       1.0  0.33368  1.00000  0.39198  1.0000
  Se  Se5       1.0  0.66632  0.66632  0.39198  1.0000
  Se  Se6       1.0  1.00000  0.33368  0.39198  1.0000
  Se  Se7       1.0  0.33333  0.66667  0.05913  1.0000
  Se  Se8       1.0  0.00000  0.00000  0.05833  1.0000
  Se  Se9       1.0  0.66667  0.33333  0.05913  1.0000
