data_image0
_chemical_formula_structural       Zr6Br4
_chemical_formula_sum              "Zr6 Br4"
_cell_length_a       8.27579
_cell_length_b       8.27579
_cell_length_c       3.30237
_cell_angle_alpha    90
_cell_angle_beta     90
_cell_angle_gamma    90

_space_group_name_H-M_alt    "P 1"
_space_group_IT_number       1

loop_
  _space_group_symop_operation_xyz
  'x, y, z'

loop_
  _atom_site_type_symbol
  _atom_site_label
  _atom_site_symmetry_multiplicity
  _atom_site_fract_x
  _atom_site_fract_y
  _atom_site_fract_z
  _atom_site_occupancy
  Zr  Zr1       1.0  0.00000  0.00000  0.00000  1.0000
  Zr  Zr2       1.0  0.50000  0.50000  0.00000  1.0000
  Zr  Zr3       1.0  0.14044  0.64044  0.64586  1.0000
  Zr  Zr4       1.0  0.35956  0.14044  0.35414  1.0000
  Zr  Zr5       1.0  0.64044  0.85956  0.35414  1.0000
  Zr  Zr6       1.0  0.85956  0.35956  0.64586  1.0000
  Br  Br1       1.0  0.32037  0.82037  0.15047  1.0000
  Br  Br2       1.0  0.17963  0.32037  0.84953  1.0000
  Br  Br3       1.0  0.82037  0.67963  0.84953  1.0000
  Br  Br4       1.0  0.67963  0.17963  0.15047  1.0000
