data_image0
_chemical_formula_structural       Zr6F16
_chemical_formula_sum              "Zr6 F16"
_cell_length_a       4.91793
_cell_length_b       5.46474
_cell_length_c       11.7582
_cell_angle_alpha    76.5965
_cell_angle_beta     90
_cell_angle_gamma    90

_space_group_name_H-M_alt    "P 1"
_space_group_IT_number       1

loop_
  _space_group_symop_operation_xyz
  'x, y, z'

loop_
  _atom_site_type_symbol
  _atom_site_label
  _atom_site_symmetry_multiplicity
  _atom_site_fract_x
  _atom_site_fract_y
  _atom_site_fract_z
  _atom_site_occupancy
  Zr  Zr1       1.0  0.46487  0.79118  0.75705  1.0000
  Zr  Zr2       1.0  0.53513  0.20882  0.24295  1.0000
  Zr  Zr3       1.0  0.50000  0.00000  0.00000  1.0000
  Zr  Zr4       1.0  0.96487  0.20882  0.74295  1.0000
  Zr  Zr5       1.0  0.03513  0.79118  0.25705  1.0000
  Zr  Zr6       1.0  0.00000  0.00000  0.50000  1.0000
  F   F1        1.0  0.72092  0.57755  0.18566  1.0000
  F   F2        1.0  0.67421  0.08103  0.62321  1.0000
  F   F3        1.0  0.63719  0.69523  0.93685  1.0000
  F   F4        1.0  0.68671  0.23868  0.41135  1.0000
  F   F5        1.0  0.81329  0.23868  0.91135  1.0000
  F   F6        1.0  0.82579  0.08103  0.12321  1.0000
  F   F7        1.0  0.86281  0.69523  0.43685  1.0000
  F   F8        1.0  0.77908  0.57755  0.68566  1.0000
  F   F9        1.0  0.17421  0.91897  0.87679  1.0000
  F   F10       1.0  0.18671  0.76132  0.08865  1.0000
  F   F11       1.0  0.13719  0.30477  0.56315  1.0000
  F   F12       1.0  0.22092  0.42245  0.31434  1.0000
  F   F13       1.0  0.36281  0.30477  0.06315  1.0000
  F   F14       1.0  0.27908  0.42245  0.81434  1.0000
  F   F15       1.0  0.32579  0.91897  0.37679  1.0000
  F   F16       1.0  0.31329  0.76132  0.58865  1.0000
