data_image0
_chemical_formula_structural       F10Zr6
_chemical_formula_sum              "F10 Zr6"
_cell_length_a       6.80291
_cell_length_b       6.80291
_cell_length_c       6.80291
_cell_angle_alpha    118.955
_cell_angle_beta     118.955
_cell_angle_gamma    91.8202

_space_group_name_H-M_alt    "P 1"
_space_group_IT_number       1

loop_
  _space_group_symop_operation_xyz
  'x, y, z'

loop_
  _atom_site_type_symbol
  _atom_site_label
  _atom_site_symmetry_multiplicity
  _atom_site_fract_x
  _atom_site_fract_y
  _atom_site_fract_z
  _atom_site_occupancy
  F   F1        1.0  0.50844  0.74959  0.50000  1.0000
  F   F2        1.0  0.49156  0.25041  0.50000  1.0000
  F   F3        1.0  0.50000  0.50000  0.00000  1.0000
  F   F4        1.0  0.00000  0.00000  0.00000  1.0000
  F   F5        1.0  0.24959  0.00844  0.50000  1.0000
  F   F6        1.0  0.00844  0.50844  0.75885  1.0000
  F   F7        1.0  0.74959  0.24959  0.24115  1.0000
  F   F8        1.0  0.25041  0.75041  0.75885  1.0000
  F   F9        1.0  0.99156  0.49156  0.24115  1.0000
  F   F10       1.0  0.75041  0.99156  0.50000  1.0000
  Zr  Zr1       1.0  0.82414  0.67586  0.50000  1.0000
  Zr  Zr2       1.0  0.67586  0.17586  0.85172  1.0000
  Zr  Zr3       1.0  0.32414  0.82414  0.14828  1.0000
  Zr  Zr4       1.0  0.17586  0.32414  0.50000  1.0000
  Zr  Zr5       1.0  0.25000  0.25000  0.00000  1.0000
  Zr  Zr6       1.0  0.75000  0.75000  0.00000  1.0000
