data_image0
_chemical_formula_structural       Zr8Br16
_chemical_formula_sum              "Zr8 Br16"
_cell_length_a       8.3321
_cell_length_b       4.8404
_cell_length_c       15.4555
_cell_angle_alpha    90
_cell_angle_beta     90
_cell_angle_gamma    90

_space_group_name_H-M_alt    "P 1"
_space_group_IT_number       1

loop_
  _space_group_symop_operation_xyz
  'x, y, z'

loop_
  _atom_site_type_symbol
  _atom_site_label
  _atom_site_symmetry_multiplicity
  _atom_site_fract_x
  _atom_site_fract_y
  _atom_site_fract_z
  _atom_site_occupancy
  Zr  Zr1       1.0  0.66685  0.99938  0.05903  1.0000
  Zr  Zr2       1.0  0.83315  0.50062  0.55903  1.0000
  Zr  Zr3       1.0  0.83315  0.49938  0.94097  1.0000
  Zr  Zr4       1.0  0.66685  0.00062  0.44097  1.0000
  Zr  Zr5       1.0  0.33315  0.00062  0.94097  1.0000
  Zr  Zr6       1.0  0.16685  0.49938  0.44097  1.0000
  Zr  Zr7       1.0  0.16685  0.50062  0.05903  1.0000
  Zr  Zr8       1.0  0.33315  0.99938  0.55903  1.0000
  Br  Br1       1.0  0.16905  0.50000  0.25000  1.0000
  Br  Br2       1.0  0.33095  0.00000  0.75000  1.0000
  Br  Br3       1.0  0.83095  0.50000  0.75000  1.0000
  Br  Br4       1.0  0.66905  0.00000  0.25000  1.0000
  Br  Br5       1.0  0.33394  0.00044  0.38071  1.0000
  Br  Br6       1.0  0.16606  0.49956  0.88071  1.0000
  Br  Br7       1.0  0.16606  0.50044  0.61929  1.0000
  Br  Br8       1.0  0.33394  0.99956  0.11929  1.0000
  Br  Br9       1.0  0.66606  0.99956  0.61929  1.0000
  Br  Br10      1.0  0.83394  0.50044  0.11929  1.0000
  Br  Br11      1.0  0.83394  0.49956  0.38071  1.0000
  Br  Br12      1.0  0.66606  0.00044  0.88071  1.0000
  Br  Br13      1.0  0.50000  0.50000  0.00000  1.0000
  Br  Br14      1.0  0.00000  0.00000  0.50000  1.0000
  Br  Br15      1.0  0.00000  0.00000  0.00000  1.0000
  Br  Br16      1.0  0.50000  0.50000  0.50000  1.0000
