data_image0
_chemical_formula_structural       Pd6Au6
_chemical_formula_sum              "Pd6 Au6"
_cell_length_a       2.8986
_cell_length_b       4.90997
_cell_length_c       14.1336
_cell_angle_alpha    90
_cell_angle_beta     90
_cell_angle_gamma    90

_space_group_name_H-M_alt    "P 1"
_space_group_IT_number       1

loop_
  _space_group_symop_operation_xyz
  'x, y, z'

loop_
  _atom_site_type_symbol
  _atom_site_label
  _atom_site_symmetry_multiplicity
  _atom_site_fract_x
  _atom_site_fract_y
  _atom_site_fract_z
  _atom_site_occupancy
  Pd  Pd1       1.0  0.00000  0.03635  0.25000  1.0000
  Pd  Pd2       1.0  0.00000  0.96365  0.75000  1.0000
  Pd  Pd3       1.0  0.00000  0.32163  0.58297  1.0000
  Pd  Pd4       1.0  0.00000  0.67837  0.41703  1.0000
  Pd  Pd5       1.0  0.00000  0.32163  0.91703  1.0000
  Pd  Pd6       1.0  0.00000  0.67837  0.08297  1.0000
  Au  Au1       1.0  0.50000  0.54006  0.25000  1.0000
  Au  Au2       1.0  0.50000  0.45994  0.75000  1.0000
  Au  Au3       1.0  0.50000  0.82192  0.58314  1.0000
  Au  Au4       1.0  0.50000  0.17808  0.41686  1.0000
  Au  Au5       1.0  0.50000  0.82192  0.91686  1.0000
  Au  Au6       1.0  0.50000  0.17808  0.08314  1.0000
