data_image0
_chemical_formula_structural       ZrHg4
_chemical_formula_sum              "Zr1 Hg4"
_cell_length_a       5.52484
_cell_length_b       5.52484
_cell_length_c       5.52484
_cell_angle_alpha    99.6147
_cell_angle_beta     99.6147
_cell_angle_gamma    131.756

_space_group_name_H-M_alt    "P 1"
_space_group_IT_number       1

loop_
  _space_group_symop_operation_xyz
  'x, y, z'

loop_
  _atom_site_type_symbol
  _atom_site_label
  _atom_site_symmetry_multiplicity
  _atom_site_fract_x
  _atom_site_fract_y
  _atom_site_fract_z
  _atom_site_occupancy
  Zr  Zr1       1.0  0.00000  0.00000  0.00000  1.0000
  Hg  Hg1       1.0  0.60078  0.79732  0.39810  1.0000
  Hg  Hg2       1.0  0.39922  0.20268  0.60190  1.0000
  Hg  Hg3       1.0  0.20268  0.60078  0.80346  1.0000
  Hg  Hg4       1.0  0.79732  0.39922  0.19654  1.0000
