data_image0
_chemical_formula_structural       Zr4Se8
_chemical_formula_sum              "Zr4 Se8"
_cell_length_a       9.51205
_cell_length_b       9.51205
_cell_length_c       11.2539
_cell_angle_alpha    45.6665
_cell_angle_beta     45.6665
_cell_angle_gamma    22.1959

_space_group_name_H-M_alt    "P 1"
_space_group_IT_number       1

loop_
  _space_group_symop_operation_xyz
  'x, y, z'

loop_
  _atom_site_type_symbol
  _atom_site_label
  _atom_site_symmetry_multiplicity
  _atom_site_fract_x
  _atom_site_fract_y
  _atom_site_fract_z
  _atom_site_occupancy
  Zr  Zr1       1.0  0.71638  0.71638  0.86484  1.0000
  Zr  Zr2       1.0  0.28362  0.28362  0.13516  1.0000
  Zr  Zr3       1.0  0.41202  0.41202  0.33061  1.0000
  Zr  Zr4       1.0  0.58798  0.58798  0.66939  1.0000
  Se  Se1       1.0  0.05153  0.05153  0.07837  1.0000
  Se  Se2       1.0  0.94847  0.94847  0.92163  1.0000
  Se  Se3       1.0  0.90624  0.90624  0.50881  1.0000
  Se  Se4       1.0  0.09376  0.09376  0.49119  1.0000
  Se  Se5       1.0  0.66250  0.66250  0.17458  1.0000
  Se  Se6       1.0  0.33750  0.33750  0.82542  1.0000
  Se  Se7       1.0  0.20908  0.20908  0.66539  1.0000
  Se  Se8       1.0  0.79092  0.79092  0.33461  1.0000
