data_image0
_chemical_formula_structural       Pd16Ag16
_chemical_formula_sum              "Pd16 Ag16"
_cell_length_a       7.93151
_cell_length_b       7.93151
_cell_length_c       11.6145
_cell_angle_alpha    81.931
_cell_angle_beta     79.6377
_cell_angle_gamma    122.077

_space_group_name_H-M_alt    "P 1"
_space_group_IT_number       1

loop_
  _space_group_symop_operation_xyz
  'x, y, z'

loop_
  _atom_site_type_symbol
  _atom_site_label
  _atom_site_symmetry_multiplicity
  _atom_site_fract_x
  _atom_site_fract_y
  _atom_site_fract_z
  _atom_site_occupancy
  Pd  Pd1       1.0  0.24781  0.25093  0.50125  1.0000
  Pd  Pd2       1.0  0.81479  0.71999  0.46522  1.0000
  Pd  Pd3       1.0  0.23191  0.89801  0.87008  1.0000
  Pd  Pd4       1.0  0.78545  0.12180  0.09276  1.0000
  Pd  Pd5       1.0  0.13326  0.11624  0.75050  1.0000
  Pd  Pd6       1.0  0.83269  0.91107  0.25624  1.0000
  Pd  Pd7       1.0  0.78062  0.36035  0.48583  1.0000
  Pd  Pd8       1.0  0.15382  0.73355  0.48583  1.0000
  Pd  Pd9       1.0  0.00555  0.98400  0.01044  1.0000
  Pd  Pd10      1.0  0.61845  0.09774  0.73774  1.0000
  Pd  Pd11      1.0  0.81941  0.29326  0.26716  1.0000
  Pd  Pd12      1.0  0.16452  0.64381  0.73774  1.0000
  Pd  Pd13      1.0  0.43958  0.91343  0.26716  1.0000
  Pd  Pd14      1.0  0.46741  0.97501  0.00894  1.0000
  Pd  Pd15      1.0  0.01605  0.52364  0.00894  1.0000
  Pd  Pd16      1.0  0.02892  0.35867  0.61241  1.0000
  Ag  Ag1       1.0  0.78637  0.52166  0.69196  1.0000
  Ag  Ag2       1.0  0.18500  0.47944  0.33556  1.0000
  Ag  Ag3       1.0  0.37295  0.03382  0.59323  1.0000
  Ag  Ag4       1.0  0.61019  0.92627  0.46354  1.0000
  Ag  Ag5       1.0  0.90407  0.23621  0.85972  1.0000
  Ag  Ag6       1.0  0.06786  0.73967  0.19248  1.0000
  Ag  Ag7       1.0  0.42386  0.30403  0.89297  1.0000
  Ag  Ag8       1.0  0.19218  0.32707  0.11655  1.0000
  Ag  Ag9       1.0  0.80300  0.68317  0.89297  1.0000
  Ag  Ag10      1.0  0.55638  0.69127  0.11655  1.0000
  Ag  Ag11      1.0  0.43969  0.68107  0.87924  1.0000
  Ag  Ag12      1.0  0.57151  0.32129  0.10720  1.0000
  Ag  Ag13      1.0  0.81546  0.91514  0.64832  1.0000
  Ag  Ag14      1.0  0.60733  0.47768  0.31587  1.0000
  Ag  Ag15      1.0  0.43654  0.53622  0.64832  1.0000
  Ag  Ag16      1.0  0.20645  0.07680  0.31587  1.0000
