data_image0
_chemical_formula_structural       Pd4C4
_chemical_formula_sum              "Pd4 C4"
_cell_length_a       6.688
_cell_length_b       3.34086
_cell_length_c       5.78813
_cell_angle_alpha    54.9503
_cell_angle_beta     90
_cell_angle_gamma    90

_space_group_name_H-M_alt    "P 1"
_space_group_IT_number       1

loop_
  _space_group_symop_operation_xyz
  'x, y, z'

loop_
  _atom_site_type_symbol
  _atom_site_label
  _atom_site_symmetry_multiplicity
  _atom_site_fract_x
  _atom_site_fract_y
  _atom_site_fract_z
  _atom_site_occupancy
  Pd  Pd1       1.0  0.37606  0.82623  0.72675  1.0000
  Pd  Pd2       1.0  0.62394  0.82623  0.22675  1.0000
  Pd  Pd3       1.0  0.87173  0.78236  0.73680  1.0000
  Pd  Pd4       1.0  0.12827  0.78236  0.23680  1.0000
  C   C1        1.0  0.37325  0.07917  0.97613  1.0000
  C   C2        1.0  0.62675  0.07917  0.47613  1.0000
  C   C3        1.0  0.87895  0.03095  0.98742  1.0000
  C   C4        1.0  0.12105  0.03095  0.48742  1.0000
