data_image0
_chemical_formula_structural       Zr4F12
_chemical_formula_sum              "Zr4 F12"
_cell_length_a       7.54299
_cell_length_b       7.54299
_cell_length_c       4.90654
_cell_angle_alpha    90
_cell_angle_beta     90
_cell_angle_gamma    142.118

_space_group_name_H-M_alt    "P 1"
_space_group_IT_number       1

loop_
  _space_group_symop_operation_xyz
  'x, y, z'

loop_
  _atom_site_type_symbol
  _atom_site_label
  _atom_site_symmetry_multiplicity
  _atom_site_fract_x
  _atom_site_fract_y
  _atom_site_fract_z
  _atom_site_occupancy
  Zr  Zr1       1.0  0.62969  0.37031  0.00000  1.0000
  Zr  Zr2       1.0  0.37031  0.62969  0.00000  1.0000
  Zr  Zr3       1.0  0.12969  0.87031  0.50000  1.0000
  Zr  Zr4       1.0  0.87031  0.12969  0.50000  1.0000
  F   F1        1.0  0.66312  0.66312  0.16231  1.0000
  F   F2        1.0  0.16312  0.16312  0.33769  1.0000
  F   F3        1.0  0.83688  0.83688  0.66231  1.0000
  F   F4        1.0  0.37713  0.62287  0.50000  1.0000
  F   F5        1.0  0.98677  0.48677  0.75000  1.0000
  F   F6        1.0  0.87713  0.12287  0.00000  1.0000
  F   F7        1.0  0.01323  0.51323  0.25000  1.0000
  F   F8        1.0  0.33688  0.33688  0.83769  1.0000
  F   F9        1.0  0.62287  0.37713  0.50000  1.0000
  F   F10       1.0  0.12287  0.87713  0.00000  1.0000
  F   F11       1.0  0.51323  0.01323  0.25000  1.0000
  F   F12       1.0  0.48677  0.98677  0.75000  1.0000
