data_image0
_chemical_formula_structural       Pd4N4
_chemical_formula_sum              "Pd4 N4"
_cell_length_a       5.47321
_cell_length_b       4.8075
_cell_length_c       5.8012
_cell_angle_alpha    61.2721
_cell_angle_beta     50.3766
_cell_angle_gamma    68.3512

_space_group_name_H-M_alt    "P 1"
_space_group_IT_number       1

loop_
  _space_group_symop_operation_xyz
  'x, y, z'

loop_
  _atom_site_type_symbol
  _atom_site_label
  _atom_site_symmetry_multiplicity
  _atom_site_fract_x
  _atom_site_fract_y
  _atom_site_fract_z
  _atom_site_occupancy
  Pd  Pd1       1.0  0.24081  0.24081  0.75919  1.0000
  Pd  Pd2       1.0  0.75919  0.75919  0.24081  1.0000
  Pd  Pd3       1.0  0.00919  0.00919  0.49081  1.0000
  Pd  Pd4       1.0  0.49081  0.49081  0.00919  1.0000
  N   N1        1.0  0.65264  0.34736  0.65264  1.0000
  N   N2        1.0  0.34736  0.65264  0.34736  1.0000
  N   N3        1.0  0.59736  0.90264  0.59736  1.0000
  N   N4        1.0  0.90264  0.59736  0.90264  1.0000
