data_image0
_chemical_formula_structural       Ag20Pd4
_chemical_formula_sum              "Ag20 Pd4"
_cell_length_a       8.07737
_cell_length_b       8.07737
_cell_length_c       20.4043
_cell_angle_alpha    63.5504
_cell_angle_beta     63.5504
_cell_angle_gamma    120.123

_space_group_name_H-M_alt    "P 1"
_space_group_IT_number       1

loop_
  _space_group_symop_operation_xyz
  'x, y, z'

loop_
  _atom_site_type_symbol
  _atom_site_label
  _atom_site_symmetry_multiplicity
  _atom_site_fract_x
  _atom_site_fract_y
  _atom_site_fract_z
  _atom_site_occupancy
  Ag  Ag1       1.0  0.53627  0.61808  0.79587  1.0000
  Ag  Ag2       1.0  0.38192  0.46373  0.70413  1.0000
  Ag  Ag3       1.0  0.46373  0.38192  0.20413  1.0000
  Ag  Ag4       1.0  0.61808  0.53627  0.29587  1.0000
  Ag  Ag5       1.0  0.19387  0.59565  0.62317  1.0000
  Ag  Ag6       1.0  0.40435  0.80613  0.87683  1.0000
  Ag  Ag7       1.0  0.80613  0.40435  0.37683  1.0000
  Ag  Ag8       1.0  0.59565  0.19387  0.12317  1.0000
  Ag  Ag9       1.0  0.99668  0.32171  0.57894  1.0000
  Ag  Ag10      1.0  0.67829  0.00332  0.92106  1.0000
  Ag  Ag11      1.0  0.00332  0.67829  0.42106  1.0000
  Ag  Ag12      1.0  0.32171  0.99668  0.07894  1.0000
  Ag  Ag13      1.0  0.98092  0.79501  0.59555  1.0000
  Ag  Ag14      1.0  0.20499  0.01908  0.90445  1.0000
  Ag  Ag15      1.0  0.01908  0.20499  0.40445  1.0000
  Ag  Ag16      1.0  0.79501  0.98092  0.09555  1.0000
  Ag  Ag17      1.0  0.87191  0.57429  0.78545  1.0000
  Ag  Ag18      1.0  0.42571  0.12809  0.71455  1.0000
  Ag  Ag19      1.0  0.12809  0.42571  0.21455  1.0000
  Ag  Ag20      1.0  0.57429  0.87191  0.28545  1.0000
  Pd  Pd1       1.0  0.54715  0.97816  0.61100  1.0000
  Pd  Pd2       1.0  0.02184  0.45285  0.88900  1.0000
  Pd  Pd3       1.0  0.45285  0.02184  0.38900  1.0000
  Pd  Pd4       1.0  0.97816  0.54715  0.11100  1.0000
