data_image0
_chemical_formula_structural       Ag24Pd14
_chemical_formula_sum              "Ag24 Pd14"
_cell_length_a       9.8109
_cell_length_b       7.90477
_cell_length_c       10.3015
_cell_angle_alpha    59.9138
_cell_angle_beta     90
_cell_angle_gamma    90

_space_group_name_H-M_alt    "P 1"
_space_group_IT_number       1

loop_
  _space_group_symop_operation_xyz
  'x, y, z'

loop_
  _atom_site_type_symbol
  _atom_site_label
  _atom_site_symmetry_multiplicity
  _atom_site_fract_x
  _atom_site_fract_y
  _atom_site_fract_z
  _atom_site_occupancy
  Ag  Ag1       1.0  0.81471  0.51916  0.67432  1.0000
  Ag  Ag2       1.0  0.51647  0.86565  0.85405  1.0000
  Ag  Ag3       1.0  0.68529  0.51916  0.17432  1.0000
  Ag  Ag4       1.0  0.79616  0.76171  0.85218  1.0000
  Ag  Ag5       1.0  0.57204  0.77439  0.59955  1.0000
  Ag  Ag6       1.0  0.93003  0.26726  0.28718  1.0000
  Ag  Ag7       1.0  0.56997  0.26726  0.78718  1.0000
  Ag  Ag8       1.0  0.30044  0.78002  0.44321  1.0000
  Ag  Ag9       1.0  0.29616  0.23829  0.64782  1.0000
  Ag  Ag10      1.0  0.43003  0.73274  0.21282  1.0000
  Ag  Ag11      1.0  0.42796  0.22561  0.40045  1.0000
  Ag  Ag12      1.0  0.48353  0.13435  0.14595  1.0000
  Ag  Ag13      1.0  0.31471  0.48084  0.82568  1.0000
  Ag  Ag14      1.0  0.98353  0.86565  0.35405  1.0000
  Ag  Ag15      1.0  0.06997  0.73274  0.71282  1.0000
  Ag  Ag16      1.0  0.92796  0.77439  0.09955  1.0000
  Ag  Ag17      1.0  0.19956  0.78002  0.94321  1.0000
  Ag  Ag18      1.0  0.80044  0.21998  0.05679  1.0000
  Ag  Ag19      1.0  0.69956  0.21998  0.55679  1.0000
  Ag  Ag20      1.0  0.01647  0.13435  0.64595  1.0000
  Ag  Ag21      1.0  0.70384  0.76171  0.35218  1.0000
  Ag  Ag22      1.0  0.20384  0.23829  0.14782  1.0000
  Ag  Ag23      1.0  0.18529  0.48084  0.32568  1.0000
  Ag  Ag24      1.0  0.07204  0.22561  0.90045  1.0000
  Pd  Pd1       1.0  0.50000  0.50000  0.50000  1.0000
  Pd  Pd2       1.0  0.34704  0.07757  0.94532  1.0000
  Pd  Pd3       1.0  0.17214  0.88297  0.16453  1.0000
  Pd  Pd4       1.0  0.84704  0.92243  0.55468  1.0000
  Pd  Pd5       1.0  0.40390  0.50420  0.09155  1.0000
  Pd  Pd6       1.0  0.09610  0.50420  0.59155  1.0000
  Pd  Pd7       1.0  0.65296  0.92243  0.05468  1.0000
  Pd  Pd8       1.0  0.59610  0.49580  0.90845  1.0000
  Pd  Pd9       1.0  0.00000  0.50000  0.00000  1.0000
  Pd  Pd10      1.0  0.67214  0.11703  0.33547  1.0000
  Pd  Pd11      1.0  0.15296  0.07757  0.44532  1.0000
  Pd  Pd12      1.0  0.32786  0.88297  0.66453  1.0000
  Pd  Pd13      1.0  0.90390  0.49580  0.40845  1.0000
  Pd  Pd14      1.0  0.82786  0.11703  0.83547  1.0000
