data_image0
_chemical_formula_structural       Ag12Pd6
_chemical_formula_sum              "Ag12 Pd6"
_cell_length_a       5.29228
_cell_length_b       5.29228
_cell_length_c       13.8504
_cell_angle_alpha    90
_cell_angle_beta     90
_cell_angle_gamma    120

_space_group_name_H-M_alt    "P 1"
_space_group_IT_number       1

loop_
  _space_group_symop_operation_xyz
  'x, y, z'

loop_
  _atom_site_type_symbol
  _atom_site_label
  _atom_site_symmetry_multiplicity
  _atom_site_fract_x
  _atom_site_fract_y
  _atom_site_fract_z
  _atom_site_occupancy
  Ag  Ag1       1.0  0.50000  0.00000  0.10410  1.0000
  Ag  Ag2       1.0  0.50000  0.50000  0.43743  1.0000
  Ag  Ag3       1.0  0.00000  0.50000  0.77077  1.0000
  Ag  Ag4       1.0  0.50000  0.00000  0.89590  1.0000
  Ag  Ag5       1.0  0.50000  0.50000  0.22923  1.0000
  Ag  Ag6       1.0  0.00000  0.50000  0.56257  1.0000
  Ag  Ag7       1.0  0.17405  0.34810  0.00000  1.0000
  Ag  Ag8       1.0  0.82595  0.17405  0.33333  1.0000
  Ag  Ag9       1.0  0.34810  0.17405  0.66667  1.0000
  Ag  Ag10      1.0  0.65190  0.82595  0.66667  1.0000
  Ag  Ag11      1.0  0.17405  0.82595  0.33333  1.0000
  Ag  Ag12      1.0  0.82595  0.65190  0.00000  1.0000
  Pd  Pd1       1.0  0.00000  0.00000  0.16667  1.0000
  Pd  Pd2       1.0  0.00000  0.00000  0.50000  1.0000
  Pd  Pd3       1.0  0.00000  0.00000  0.83333  1.0000
  Pd  Pd4       1.0  0.00000  0.50000  0.16667  1.0000
  Pd  Pd5       1.0  0.50000  0.00000  0.50000  1.0000
  Pd  Pd6       1.0  0.50000  0.50000  0.83333  1.0000
