data_image0
_chemical_formula_structural       Ag10Pd3
_chemical_formula_sum              "Ag10 Pd3"
_cell_length_a       7.34265
_cell_length_b       7.34265
_cell_length_c       8.44902
_cell_angle_alpha    90
_cell_angle_beta     90
_cell_angle_gamma    120

_space_group_name_H-M_alt    "P 1"
_space_group_IT_number       1

loop_
  _space_group_symop_operation_xyz
  'x, y, z'

loop_
  _atom_site_type_symbol
  _atom_site_label
  _atom_site_symmetry_multiplicity
  _atom_site_fract_x
  _atom_site_fract_y
  _atom_site_fract_z
  _atom_site_occupancy
  Ag  Ag1       1.0  0.86875  0.73750  0.24947  1.0000
  Ag  Ag2       1.0  0.50000  0.00000  0.50000  1.0000
  Ag  Ag3       1.0  0.13125  0.26250  0.75053  1.0000
  Ag  Ag4       1.0  0.86875  0.13125  0.24947  1.0000
  Ag  Ag5       1.0  0.50000  0.50000  0.50000  1.0000
  Ag  Ag6       1.0  0.13125  0.86875  0.75053  1.0000
  Ag  Ag7       1.0  0.00000  0.50000  0.50000  1.0000
  Ag  Ag8       1.0  0.73750  0.86875  0.75053  1.0000
  Ag  Ag9       1.0  0.26250  0.13125  0.24947  1.0000
  Ag  Ag10      1.0  0.00000  0.00000  0.50000  1.0000
  Pd  Pd1       1.0  0.66667  0.33333  0.29377  1.0000
  Pd  Pd2       1.0  0.33333  0.66667  0.70623  1.0000
  Pd  Pd3       1.0  0.00000  0.00000  0.00000  1.0000
