data_image0
_chemical_formula_structural       Ag2Pd2
_chemical_formula_sum              "Ag2 Pd2"
_cell_length_a       5.51511
_cell_length_b       5.51511
_cell_length_c       5.51511
_cell_angle_alpha    150.848
_cell_angle_beta     66.326
_cell_angle_gamma    121.884

_space_group_name_H-M_alt    "P 1"
_space_group_IT_number       1

loop_
  _space_group_symop_operation_xyz
  'x, y, z'

loop_
  _atom_site_type_symbol
  _atom_site_label
  _atom_site_symmetry_multiplicity
  _atom_site_fract_x
  _atom_site_fract_y
  _atom_site_fract_z
  _atom_site_occupancy
  Ag  Ag1       1.0  0.25057  0.25057  0.00000  1.0000
  Ag  Ag2       1.0  0.74943  0.74943  0.00000  1.0000
  Pd  Pd1       1.0  0.73473  1.00000  0.73473  1.0000
  Pd  Pd2       1.0  0.26527  0.00000  0.26527  1.0000
