data_image0
_chemical_formula_structural       Pd3Hg3
_chemical_formula_sum              "Pd3 Hg3"
_cell_length_a       3.10392
_cell_length_b       3.11766
_cell_length_c       12.4533
_cell_angle_alpha    80.5342
_cell_angle_beta     74.6876
_cell_angle_gamma    90.1062

_space_group_name_H-M_alt    "P 1"
_space_group_IT_number       1

loop_
  _space_group_symop_operation_xyz
  'x, y, z'

loop_
  _atom_site_type_symbol
  _atom_site_label
  _atom_site_symmetry_multiplicity
  _atom_site_fract_x
  _atom_site_fract_y
  _atom_site_fract_z
  _atom_site_occupancy
  Pd  Pd1       1.0  0.99293  0.69082  0.99849  1.0000
  Pd  Pd2       1.0  0.33583  0.08846  0.14666  1.0000
  Pd  Pd3       1.0  0.33370  0.91414  0.68453  1.0000
  Hg  Hg1       1.0  0.67533  0.48357  0.30071  1.0000
  Hg  Hg2       1.0  0.65765  0.29947  0.84591  1.0000
  Hg  Hg3       1.0  0.00456  0.52353  0.52361  1.0000
