data_image0
_chemical_formula_structural       Pd6Ag12
_chemical_formula_sum              "Pd6 Ag12"
_cell_length_a       10.1814
_cell_length_b       10.1814
_cell_length_c       5.07826
_cell_angle_alpha    90
_cell_angle_beta     90
_cell_angle_gamma    120

_space_group_name_H-M_alt    "P 1"
_space_group_IT_number       1

loop_
  _space_group_symop_operation_xyz
  'x, y, z'

loop_
  _atom_site_type_symbol
  _atom_site_label
  _atom_site_symmetry_multiplicity
  _atom_site_fract_x
  _atom_site_fract_y
  _atom_site_fract_z
  _atom_site_occupancy
  Pd  Pd1       1.0  0.00000  0.75078  0.00429  1.0000
  Pd  Pd2       1.0  0.75078  0.00000  0.00429  1.0000
  Pd  Pd3       1.0  0.24922  0.24922  0.00429  1.0000
  Pd  Pd4       1.0  1.00000  0.24922  0.99571  1.0000
  Pd  Pd5       1.0  0.24922  1.00000  0.99571  1.0000
  Pd  Pd6       1.0  0.75078  0.75078  0.99571  1.0000
  Ag  Ag1       1.0  0.00000  0.50000  0.50000  1.0000
  Ag  Ag2       1.0  0.50000  0.00000  0.50000  1.0000
  Ag  Ag3       1.0  0.50000  0.50000  0.50000  1.0000
  Ag  Ag4       1.0  0.16404  0.83596  0.50000  1.0000
  Ag  Ag5       1.0  0.67193  0.83596  0.50000  1.0000
  Ag  Ag6       1.0  0.16404  0.32807  0.50000  1.0000
  Ag  Ag7       1.0  0.83596  0.67193  0.50000  1.0000
  Ag  Ag8       1.0  0.83596  0.16404  0.50000  1.0000
  Ag  Ag9       1.0  0.32807  0.16404  0.50000  1.0000
  Ag  Ag10      1.0  0.00000  0.50000  0.00000  1.0000
  Ag  Ag11      1.0  0.50000  0.00000  0.00000  1.0000
  Ag  Ag12      1.0  0.50000  0.50000  0.00000  1.0000
