data_image0
_chemical_formula_structural       Pd4Hg4
_chemical_formula_sum              "Pd4 Hg4"
_cell_length_a       3.09595
_cell_length_b       3.0956
_cell_length_c       39.327
_cell_angle_alpha    90.2349
_cell_angle_beta     90.2874
_cell_angle_gamma    89.9899

_space_group_name_H-M_alt    "P 1"
_space_group_IT_number       1

loop_
  _space_group_symop_operation_xyz
  'x, y, z'

loop_
  _atom_site_type_symbol
  _atom_site_label
  _atom_site_symmetry_multiplicity
  _atom_site_fract_x
  _atom_site_fract_y
  _atom_site_fract_z
  _atom_site_occupancy
  Pd  Pd1       1.0  0.54268  0.80114  0.27334  1.0000
  Pd  Pd2       1.0  0.04062  0.29819  0.22826  1.0000
  Pd  Pd3       1.0  0.95938  0.70181  0.77174  1.0000
  Pd  Pd4       1.0  0.45732  0.19886  0.72666  1.0000
  Hg  Hg1       1.0  0.04784  0.30207  0.31928  1.0000
  Hg  Hg2       1.0  0.53673  0.79711  0.18247  1.0000
  Hg  Hg3       1.0  0.46327  0.20289  0.81753  1.0000
  Hg  Hg4       1.0  0.95216  0.69793  0.68072  1.0000
