data_image0
_chemical_formula_structural       Pd4Ag8
_chemical_formula_sum              "Pd4 Ag8"
_cell_length_a       7.1003
_cell_length_b       7.1003
_cell_length_c       7.1003
_cell_angle_alpha    60
_cell_angle_beta     60
_cell_angle_gamma    60

_space_group_name_H-M_alt    "P 1"
_space_group_IT_number       1

loop_
  _space_group_symop_operation_xyz
  'x, y, z'

loop_
  _atom_site_type_symbol
  _atom_site_label
  _atom_site_symmetry_multiplicity
  _atom_site_fract_x
  _atom_site_fract_y
  _atom_site_fract_z
  _atom_site_occupancy
  Pd  Pd1       1.0  0.85019  0.85019  0.44943  1.0000
  Pd  Pd2       1.0  0.44943  0.85019  0.85019  1.0000
  Pd  Pd3       1.0  0.85019  0.85019  0.85019  1.0000
  Pd  Pd4       1.0  0.85019  0.44943  0.85019  1.0000
  Ag  Ag1       1.0  0.59534  0.21399  0.59534  1.0000
  Ag  Ag2       1.0  0.21399  0.59534  0.59534  1.0000
  Ag  Ag3       1.0  0.59534  0.59534  0.59534  1.0000
  Ag  Ag4       1.0  0.12344  0.12344  0.12344  1.0000
  Ag  Ag5       1.0  0.12344  0.62969  0.12344  1.0000
  Ag  Ag6       1.0  0.12344  0.12344  0.62969  1.0000
  Ag  Ag7       1.0  0.62969  0.12344  0.12344  1.0000
  Ag  Ag8       1.0  0.59534  0.59534  0.21399  1.0000
