data_image0
_chemical_formula_structural       Ag4Pd2
_chemical_formula_sum              "Ag4 Pd2"
_cell_length_a       7.87904
_cell_length_b       2.82644
_cell_length_c       4.8782
_cell_angle_alpha    74.3341
_cell_angle_beta     90
_cell_angle_gamma    90

_space_group_name_H-M_alt    "P 1"
_space_group_IT_number       1

loop_
  _space_group_symop_operation_xyz
  'x, y, z'

loop_
  _atom_site_type_symbol
  _atom_site_label
  _atom_site_symmetry_multiplicity
  _atom_site_fract_x
  _atom_site_fract_y
  _atom_site_fract_z
  _atom_site_occupancy
  Ag  Ag1       1.0  0.08611  0.29426  0.44075  1.0000
  Ag  Ag2       1.0  0.58653  0.62537  0.01970  1.0000
  Ag  Ag3       1.0  0.91389  0.29426  0.94075  1.0000
  Ag  Ag4       1.0  0.41347  0.62537  0.51970  1.0000
  Pd  Pd1       1.0  0.74996  0.95537  0.47705  1.0000
  Pd  Pd2       1.0  0.25004  0.95537  0.97705  1.0000
