data_image0
_chemical_formula_structural       Pd2Hg2
_chemical_formula_sum              "Pd2 Hg2"
_cell_length_a       3.10005
_cell_length_b       3.10005
_cell_length_c       25.6394
_cell_angle_alpha    87.4758
_cell_angle_beta     87.4758
_cell_angle_gamma    90.2849

_space_group_name_H-M_alt    "P 1"
_space_group_IT_number       1

loop_
  _space_group_symop_operation_xyz
  'x, y, z'

loop_
  _atom_site_type_symbol
  _atom_site_label
  _atom_site_symmetry_multiplicity
  _atom_site_fract_x
  _atom_site_fract_y
  _atom_site_fract_z
  _atom_site_occupancy
  Pd  Pd1       1.0  0.24856  0.27601  0.96529  1.0000
  Pd  Pd2       1.0  0.72399  0.75144  0.03471  1.0000
  Hg  Hg1       1.0  0.78063  0.79378  0.89557  1.0000
  Hg  Hg2       1.0  0.20622  0.21937  0.10443  1.0000
