data_image0
_chemical_formula_structural       Pd8Hg8
_chemical_formula_sum              "Pd8 Hg8"
_cell_length_a       13.4341
_cell_length_b       13.4341
_cell_length_c       13.4341
_cell_angle_alpha    118.436
_cell_angle_beta     118.436
_cell_angle_gamma    92.7316

_space_group_name_H-M_alt    "P 1"
_space_group_IT_number       1

loop_
  _space_group_symop_operation_xyz
  'x, y, z'

loop_
  _atom_site_type_symbol
  _atom_site_label
  _atom_site_symmetry_multiplicity
  _atom_site_fract_x
  _atom_site_fract_y
  _atom_site_fract_z
  _atom_site_occupancy
  Pd  Pd1       1.0  0.12500  0.06177  0.43677  1.0000
  Pd  Pd2       1.0  0.81177  0.87500  0.43677  1.0000
  Pd  Pd3       1.0  0.43823  0.37500  0.56323  1.0000
  Pd  Pd4       1.0  0.62500  0.68823  0.56323  1.0000
  Pd  Pd5       1.0  0.62500  0.18823  0.06323  1.0000
  Pd  Pd6       1.0  0.93823  0.37500  0.06323  1.0000
  Pd  Pd7       1.0  0.31177  0.87500  0.93677  1.0000
  Pd  Pd8       1.0  0.12500  0.56177  0.93677  1.0000
  Hg  Hg1       1.0  0.72655  0.22655  0.95309  1.0000
  Hg  Hg2       1.0  0.97655  0.52345  0.00000  1.0000
  Hg  Hg3       1.0  0.52345  0.97655  0.00000  1.0000
  Hg  Hg4       1.0  0.27345  0.77345  0.04691  1.0000
  Hg  Hg5       1.0  0.02345  0.02345  0.54691  1.0000
  Hg  Hg6       1.0  0.77345  0.72655  0.50000  1.0000
  Hg  Hg7       1.0  0.22655  0.27345  0.50000  1.0000
  Hg  Hg8       1.0  0.47655  0.47655  0.45309  1.0000
