data_image0
_chemical_formula_structural       Pd2N2
_chemical_formula_sum              "Pd2 N2"
_cell_length_a       5.23577
_cell_length_b       5.23577
_cell_length_c       5.23577
_cell_angle_alpha    147.295
_cell_angle_beta     135.579
_cell_angle_gamma    56.2421

_space_group_name_H-M_alt    "P 1"
_space_group_IT_number       1

loop_
  _space_group_symop_operation_xyz
  'x, y, z'

loop_
  _atom_site_type_symbol
  _atom_site_label
  _atom_site_symmetry_multiplicity
  _atom_site_fract_x
  _atom_site_fract_y
  _atom_site_fract_z
  _atom_site_occupancy
  Pd  Pd1       1.0  0.17453  0.17453  0.00000  1.0000
  Pd  Pd2       1.0  0.82547  0.82547  1.00000  1.0000
  N   N1        1.0  0.64932  0.00000  0.64932  1.0000
  N   N2        1.0  0.35068  0.00000  0.35068  1.0000
