data_image0
_chemical_formula_structural       Pd4Ag10
_chemical_formula_sum              "Pd4 Ag10"
_cell_length_a       6.89339
_cell_length_b       6.89339
_cell_length_c       7.48461
_cell_angle_alpha    87.7559
_cell_angle_beta     87.7559
_cell_angle_gamma    42.8199

_space_group_name_H-M_alt    "P 1"
_space_group_IT_number       1

loop_
  _space_group_symop_operation_xyz
  'x, y, z'

loop_
  _atom_site_type_symbol
  _atom_site_label
  _atom_site_symmetry_multiplicity
  _atom_site_fract_x
  _atom_site_fract_y
  _atom_site_fract_z
  _atom_site_occupancy
  Pd  Pd1       1.0  0.26437  0.59484  0.60654  1.0000
  Pd  Pd2       1.0  0.40516  0.73563  0.89346  1.0000
  Pd  Pd3       1.0  0.73563  0.40516  0.39346  1.0000
  Pd  Pd4       1.0  0.59484  0.26437  0.10654  1.0000
  Ag  Ag1       1.0  0.30675  0.97429  0.53722  1.0000
  Ag  Ag2       1.0  0.02571  0.69325  0.96278  1.0000
  Ag  Ag3       1.0  0.12754  0.44424  0.32171  1.0000
  Ag  Ag4       1.0  0.55576  0.87246  0.17829  1.0000
  Ag  Ag5       1.0  0.87246  0.55576  0.67829  1.0000
  Ag  Ag6       1.0  0.44424  0.12754  0.82171  1.0000
  Ag  Ag7       1.0  0.97429  0.30675  0.03722  1.0000
  Ag  Ag8       1.0  0.69325  0.02571  0.46278  1.0000
  Ag  Ag9       1.0  0.83271  0.16729  0.75000  1.0000
  Ag  Ag10      1.0  0.16729  0.83271  0.25000  1.0000
