data_image0
_chemical_formula_structural       Pd4Ag6
_chemical_formula_sum              "Pd4 Ag6"
_cell_length_a       2.82595
_cell_length_b       2.82595
_cell_length_c       25.2478
_cell_angle_alpha    90
_cell_angle_beta     90
_cell_angle_gamma    120

_space_group_name_H-M_alt    "P 1"
_space_group_IT_number       1

loop_
  _space_group_symop_operation_xyz
  'x, y, z'

loop_
  _atom_site_type_symbol
  _atom_site_label
  _atom_site_symmetry_multiplicity
  _atom_site_fract_x
  _atom_site_fract_y
  _atom_site_fract_z
  _atom_site_occupancy
  Pd  Pd1       1.0  0.00000  0.00000  0.18122  1.0000
  Pd  Pd2       1.0  0.00000  0.00000  0.47803  1.0000
  Pd  Pd3       1.0  0.00000  0.00000  0.77766  1.0000
  Pd  Pd4       1.0  0.33333  0.66667  0.98139  1.0000
  Ag  Ag1       1.0  0.00000  0.00000  0.07432  1.0000
  Ag  Ag2       1.0  0.00000  0.00000  0.37111  1.0000
  Ag  Ag3       1.0  0.00000  0.00000  0.66893  1.0000
  Ag  Ag4       1.0  0.33333  0.66667  0.27412  1.0000
  Ag  Ag5       1.0  0.33333  0.66667  0.57081  1.0000
  Ag  Ag6       1.0  0.33333  0.66667  0.87240  1.0000
