data_image0
_chemical_formula_structural       Pd3Ag6
_chemical_formula_sum              "Pd3 Ag6"
_cell_length_a       8.18068
_cell_length_b       8.18068
_cell_length_c       9.37908
_cell_angle_alpha    90
_cell_angle_beta     90
_cell_angle_gamma    120

_space_group_name_H-M_alt    "P 1"
_space_group_IT_number       1

loop_
  _space_group_symop_operation_xyz
  'x, y, z'

loop_
  _atom_site_type_symbol
  _atom_site_label
  _atom_site_symmetry_multiplicity
  _atom_site_fract_x
  _atom_site_fract_y
  _atom_site_fract_z
  _atom_site_occupancy
  Pd  Pd1       1.0  0.48860  0.48860  0.00000  1.0000
  Pd  Pd2       1.0  0.51140  0.00000  0.66667  1.0000
  Pd  Pd3       1.0  0.00000  0.51140  0.33333  1.0000
  Ag  Ag1       1.0  0.54029  0.75116  0.81916  1.0000
  Ag  Ag2       1.0  0.24884  0.78913  0.48583  1.0000
  Ag  Ag3       1.0  0.21087  0.45971  0.15250  1.0000
  Ag  Ag4       1.0  0.75116  0.54029  0.18084  1.0000
  Ag  Ag5       1.0  0.78913  0.24884  0.51417  1.0000
  Ag  Ag6       1.0  0.45971  0.21087  0.84750  1.0000
