data_image0
_chemical_formula_structural       Ag24Pd3
_chemical_formula_sum              "Ag24 Pd3"
_cell_length_a       9.1068
_cell_length_b       9.1068
_cell_length_c       9.25566
_cell_angle_alpha    62.0934
_cell_angle_beta     62.0934
_cell_angle_gamma    52.2313

_space_group_name_H-M_alt    "P 1"
_space_group_IT_number       1

loop_
  _space_group_symop_operation_xyz
  'x, y, z'

loop_
  _atom_site_type_symbol
  _atom_site_label
  _atom_site_symmetry_multiplicity
  _atom_site_fract_x
  _atom_site_fract_y
  _atom_site_fract_z
  _atom_site_occupancy
  Ag  Ag1       1.0  0.77134  0.41695  0.76775  1.0000
  Ag  Ag2       1.0  0.25188  0.79946  0.36682  1.0000
  Ag  Ag3       1.0  0.53162  0.53162  0.57495  1.0000
  Ag  Ag4       1.0  0.00521  0.00521  0.17670  1.0000
  Ag  Ag5       1.0  0.41695  0.77134  0.76775  1.0000
  Ag  Ag6       1.0  0.79946  0.25188  0.36682  1.0000
  Ag  Ag7       1.0  0.74531  0.11985  0.70979  1.0000
  Ag  Ag8       1.0  0.28503  0.64629  0.11924  1.0000
  Ag  Ag9       1.0  0.98735  0.98735  0.90175  1.0000
  Ag  Ag10      1.0  0.40623  0.40623  0.45142  1.0000
  Ag  Ag11      1.0  0.11985  0.74531  0.70979  1.0000
  Ag  Ag12      1.0  0.64629  0.28503  0.11924  1.0000
  Ag  Ag13      1.0  0.37047  0.95593  0.96640  1.0000
  Ag  Ag14      1.0  0.92487  0.42365  0.42753  1.0000
  Ag  Ag15      1.0  0.19580  0.19580  0.66259  1.0000
  Ag  Ag16      1.0  0.64498  0.64498  0.18999  1.0000
  Ag  Ag17      1.0  0.95593  0.37047  0.96640  1.0000
  Ag  Ag18      1.0  0.42365  0.92487  0.42753  1.0000
  Ag  Ag19      1.0  0.99768  0.62309  0.54572  1.0000
  Ag  Ag20      1.0  0.57224  0.04584  0.05709  1.0000
  Ag  Ag21      1.0  0.32769  0.32769  0.81672  1.0000
  Ag  Ag22      1.0  0.81682  0.81682  0.27296  1.0000
  Ag  Ag23      1.0  0.62309  0.99768  0.54572  1.0000
  Ag  Ag24      1.0  0.04584  0.57224  0.05709  1.0000
  Pd  Pd1       1.0  0.30233  0.30233  0.29700  1.0000
  Pd  Pd2       1.0  0.76474  0.76474  0.83601  1.0000
  Pd  Pd3       1.0  0.17622  0.17622  0.19628  1.0000
