data_image0
_chemical_formula_structural       Ag40Pd8
_chemical_formula_sum              "Ag40 Pd8"
_cell_length_a       9.78026
_cell_length_b       9.78026
_cell_length_c       9.34018
_cell_angle_alpha    90
_cell_angle_beta     90
_cell_angle_gamma    90.4987

_space_group_name_H-M_alt    "P 1"
_space_group_IT_number       1

loop_
  _space_group_symop_operation_xyz
  'x, y, z'

loop_
  _atom_site_type_symbol
  _atom_site_label
  _atom_site_symmetry_multiplicity
  _atom_site_fract_x
  _atom_site_fract_y
  _atom_site_fract_z
  _atom_site_occupancy
  Ag  Ag1       1.0  0.85656  0.50635  0.49261  1.0000
  Ag  Ag2       1.0  0.49365  0.14344  0.49261  1.0000
  Ag  Ag3       1.0  0.50000  0.50000  0.84465  1.0000
  Ag  Ag4       1.0  0.14344  0.49365  0.49261  1.0000
  Ag  Ag5       1.0  0.50635  0.85656  0.49261  1.0000
  Ag  Ag6       1.0  0.50000  0.50000  0.14499  1.0000
  Ag  Ag7       1.0  0.30087  0.69913  0.01337  1.0000
  Ag  Ag8       1.0  0.02964  0.69033  0.29562  1.0000
  Ag  Ag9       1.0  0.30967  0.97036  0.29562  1.0000
  Ag  Ag10      1.0  0.69913  0.30087  0.01337  1.0000
  Ag  Ag11      1.0  0.97036  0.30967  0.29562  1.0000
  Ag  Ag12      1.0  0.69033  0.02964  0.29562  1.0000
  Ag  Ag13      1.0  0.82104  0.82104  0.86021  1.0000
  Ag  Ag14      1.0  0.01278  0.67698  0.69380  1.0000
  Ag  Ag15      1.0  0.67698  0.01278  0.69380  1.0000
  Ag  Ag16      1.0  0.17896  0.17896  0.86021  1.0000
  Ag  Ag17      1.0  0.98722  0.32302  0.69380  1.0000
  Ag  Ag18      1.0  0.32302  0.98722  0.69380  1.0000
  Ag  Ag19      1.0  0.66588  0.33412  0.65182  1.0000
  Ag  Ag20      1.0  0.33412  0.66588  0.65182  1.0000
  Ag  Ag21      1.0  0.35061  0.35061  0.35376  1.0000
  Ag  Ag22      1.0  0.64939  0.64939  0.35376  1.0000
  Ag  Ag23      1.0  0.85187  0.14813  0.50749  1.0000
  Ag  Ag24      1.0  0.48595  0.19395  0.84261  1.0000
  Ag  Ag25      1.0  0.80605  0.51405  0.84261  1.0000
  Ag  Ag26      1.0  0.14813  0.85187  0.50749  1.0000
  Ag  Ag27      1.0  0.51405  0.80605  0.84261  1.0000
  Ag  Ag28      1.0  0.19395  0.48595  0.84261  1.0000
  Ag  Ag29      1.0  0.15789  0.15789  0.49237  1.0000
  Ag  Ag30      1.0  0.47474  0.18655  0.15937  1.0000
  Ag  Ag31      1.0  0.18655  0.47474  0.15937  1.0000
  Ag  Ag32      1.0  0.84211  0.84211  0.49237  1.0000
  Ag  Ag33      1.0  0.52526  0.81345  0.15937  1.0000
  Ag  Ag34      1.0  0.81345  0.52526  0.15937  1.0000
  Ag  Ag35      1.0  0.33213  0.66787  0.33665  1.0000
  Ag  Ag36      1.0  0.66787  0.33213  0.33665  1.0000
  Ag  Ag37      1.0  0.66070  0.66070  0.64736  1.0000
  Ag  Ag38      1.0  0.33930  0.33930  0.64736  1.0000
  Ag  Ag39      1.0  0.90452  0.09548  0.02315  1.0000
  Ag  Ag40      1.0  0.09548  0.90452  0.02315  1.0000
  Pd  Pd1       1.0  0.17917  0.17917  0.15293  1.0000
  Pd  Pd2       1.0  0.82083  0.82083  0.15293  1.0000
  Pd  Pd3       1.0  0.35483  0.98718  0.99603  1.0000
  Pd  Pd4       1.0  0.01282  0.64517  0.99603  1.0000
  Pd  Pd5       1.0  0.00000  0.00000  0.29692  1.0000
  Pd  Pd6       1.0  0.64517  0.01282  0.99603  1.0000
  Pd  Pd7       1.0  0.98718  0.35483  0.99603  1.0000
  Pd  Pd8       1.0  0.00000  0.00000  0.71508  1.0000
