data_image0
_chemical_formula_structural       Pd3C3
_chemical_formula_sum              "Pd3 C3"
_cell_length_a       3.32886
_cell_length_b       3.32886
_cell_length_c       8.20871
_cell_angle_alpha    90
_cell_angle_beta     90
_cell_angle_gamma    120

_space_group_name_H-M_alt    "P 1"
_space_group_IT_number       1

loop_
  _space_group_symop_operation_xyz
  'x, y, z'

loop_
  _atom_site_type_symbol
  _atom_site_label
  _atom_site_symmetry_multiplicity
  _atom_site_fract_x
  _atom_site_fract_y
  _atom_site_fract_z
  _atom_site_occupancy
  Pd  Pd1       1.0  0.66066  0.64355  0.69291  1.0000
  Pd  Pd2       1.0  0.98289  0.33934  0.35958  1.0000
  Pd  Pd3       1.0  0.35645  0.01711  0.02624  1.0000
  C   C1        1.0  0.64693  0.66983  0.44376  1.0000
  C   C2        1.0  0.33017  0.97709  0.77709  1.0000
  C   C3        1.0  0.02291  0.35307  0.11042  1.0000
