data_image0
_chemical_formula_structural       Ag29Pd2
_chemical_formula_sum              "Ag29 Pd2"
_cell_length_a       9.1727
_cell_length_b       9.1727
_cell_length_c       9.07893
_cell_angle_alpha    72.8244
_cell_angle_beta     72.8244
_cell_angle_gamma    113.527

_space_group_name_H-M_alt    "P 1"
_space_group_IT_number       1

loop_
  _space_group_symop_operation_xyz
  'x, y, z'

loop_
  _atom_site_type_symbol
  _atom_site_label
  _atom_site_symmetry_multiplicity
  _atom_site_fract_x
  _atom_site_fract_y
  _atom_site_fract_z
  _atom_site_occupancy
  Ag  Ag1       1.0  0.99960  0.99960  0.00417  1.0000
  Ag  Ag2       1.0  0.81512  0.64119  0.41140  1.0000
  Ag  Ag3       1.0  0.64119  0.81512  0.41140  1.0000
  Ag  Ag4       1.0  0.66057  0.66057  0.17658  1.0000
  Ag  Ag5       1.0  0.17042  0.77550  0.18884  1.0000
  Ag  Ag6       1.0  0.34314  0.93351  0.83981  1.0000
  Ag  Ag7       1.0  0.34191  0.16702  0.99685  1.0000
  Ag  Ag8       1.0  0.05429  0.22794  0.60192  1.0000
  Ag  Ag9       1.0  0.22794  0.05429  0.60192  1.0000
  Ag  Ag10      1.0  0.83745  0.83745  0.82378  1.0000
  Ag  Ag11      1.0  0.93351  0.34314  0.83981  1.0000
  Ag  Ag12      1.0  0.77550  0.17042  0.18884  1.0000
  Ag  Ag13      1.0  0.16702  0.34191  0.99685  1.0000
  Ag  Ag14      1.0  0.34725  0.63794  0.35517  1.0000
  Ag  Ag15      1.0  0.63794  0.34725  0.35517  1.0000
  Ag  Ag16      1.0  0.58874  0.58874  0.74892  1.0000
  Ag  Ag17      1.0  0.63845  0.27907  0.69826  1.0000
  Ag  Ag18      1.0  0.37157  0.01169  0.28457  1.0000
  Ag  Ag19      1.0  0.40781  0.66280  0.00278  1.0000
  Ag  Ag20      1.0  0.01066  0.72061  0.63803  1.0000
  Ag  Ag21      1.0  0.72061  0.01066  0.63803  1.0000
  Ag  Ag22      1.0  0.33326  0.33326  0.26051  1.0000
  Ag  Ag23      1.0  0.01169  0.37157  0.28457  1.0000
  Ag  Ag24      1.0  0.27907  0.63845  0.69826  1.0000
  Ag  Ag25      1.0  0.66280  0.40781  0.00278  1.0000
  Ag  Ag26      1.0  0.37886  0.37886  0.63319  1.0000
  Ag  Ag27      1.0  0.62184  0.98462  0.00478  1.0000
  Ag  Ag28      1.0  0.01243  0.01243  0.35640  1.0000
  Ag  Ag29      1.0  0.98462  0.62184  0.00478  1.0000
  Pd  Pd1       1.0  0.99294  0.49377  0.51382  1.0000
  Pd  Pd2       1.0  0.49377  0.99294  0.51382  1.0000
