data_image0
_chemical_formula_structural       Pd4Ag12
_chemical_formula_sum              "Pd4 Ag12"
_cell_length_a       10.074
_cell_length_b       10.074
_cell_length_c       10.074
_cell_angle_alpha    33.4049
_cell_angle_beta     33.4049
_cell_angle_gamma    33.4049

_space_group_name_H-M_alt    "P 1"
_space_group_IT_number       1

loop_
  _space_group_symop_operation_xyz
  'x, y, z'

loop_
  _atom_site_type_symbol
  _atom_site_label
  _atom_site_symmetry_multiplicity
  _atom_site_fract_x
  _atom_site_fract_y
  _atom_site_fract_z
  _atom_site_occupancy
  Pd  Pd1       1.0  0.87493  0.87493  0.87493  1.0000
  Pd  Pd2       1.0  0.12507  0.12507  0.12507  1.0000
  Pd  Pd3       1.0  0.70794  0.70794  0.70794  1.0000
  Pd  Pd4       1.0  0.29206  0.29206  0.29206  1.0000
  Ag  Ag1       1.0  0.37405  0.87758  0.37405  1.0000
  Ag  Ag2       1.0  0.37405  0.37405  0.87758  1.0000
  Ag  Ag3       1.0  0.87758  0.37405  0.37405  1.0000
  Ag  Ag4       1.0  0.62595  0.12242  0.62595  1.0000
  Ag  Ag5       1.0  0.62595  0.62595  0.12242  1.0000
  Ag  Ag6       1.0  0.12242  0.62595  0.62595  1.0000
  Ag  Ag7       1.0  0.20822  0.70842  0.20822  1.0000
  Ag  Ag8       1.0  0.20822  0.20822  0.70842  1.0000
  Ag  Ag9       1.0  0.70842  0.20822  0.20822  1.0000
  Ag  Ag10      1.0  0.79178  0.29158  0.79178  1.0000
  Ag  Ag11      1.0  0.79178  0.79178  0.29158  1.0000
  Ag  Ag12      1.0  0.29158  0.79178  0.79178  1.0000
