data_image0
_chemical_formula_structural       Ag8Pd4
_chemical_formula_sum              "Ag8 Pd4"
_cell_length_a       7.39154
_cell_length_b       7.39154
_cell_length_c       10.3225
_cell_angle_alpha    90
_cell_angle_beta     90
_cell_angle_gamma    157.636

_space_group_name_H-M_alt    "P 1"
_space_group_IT_number       1

loop_
  _space_group_symop_operation_xyz
  'x, y, z'

loop_
  _atom_site_type_symbol
  _atom_site_label
  _atom_site_symmetry_multiplicity
  _atom_site_fract_x
  _atom_site_fract_y
  _atom_site_fract_z
  _atom_site_occupancy
  Ag  Ag1       1.0  0.48711  0.51289  0.36875  1.0000
  Ag  Ag2       1.0  0.01289  0.98711  0.86875  1.0000
  Ag  Ag3       1.0  0.51289  0.48711  0.63125  1.0000
  Ag  Ag4       1.0  0.98711  0.01289  0.13125  1.0000
  Ag  Ag5       1.0  0.81656  0.18344  0.37351  1.0000
  Ag  Ag6       1.0  0.68344  0.31656  0.87351  1.0000
  Ag  Ag7       1.0  0.18344  0.81656  0.62649  1.0000
  Ag  Ag8       1.0  0.31656  0.68344  0.12649  1.0000
  Pd  Pd1       1.0  0.34810  0.65190  0.86344  1.0000
  Pd  Pd2       1.0  0.15190  0.84810  0.36344  1.0000
  Pd  Pd3       1.0  0.65190  0.34810  0.13656  1.0000
  Pd  Pd4       1.0  0.84810  0.15190  0.63656  1.0000
