data_image0
_chemical_formula_structural       Pd2N2
_chemical_formula_sum              "Pd2 N2"
_cell_length_a       6.89892
_cell_length_b       6.89892
_cell_length_c       6.89892
_cell_angle_alpha    25.1706
_cell_angle_beta     25.1706
_cell_angle_gamma    25.1706

_space_group_name_H-M_alt    "P 1"
_space_group_IT_number       1

loop_
  _space_group_symop_operation_xyz
  'x, y, z'

loop_
  _atom_site_type_symbol
  _atom_site_label
  _atom_site_symmetry_multiplicity
  _atom_site_fract_x
  _atom_site_fract_y
  _atom_site_fract_z
  _atom_site_occupancy
  Pd  Pd1       1.0  0.10518  0.10518  0.10518  1.0000
  Pd  Pd2       1.0  0.89482  0.89482  0.89482  1.0000
  N   N1        1.0  0.27765  0.27765  0.27765  1.0000
  N   N2        1.0  0.72235  0.72235  0.72235  1.0000
