data_image0
_chemical_formula_structural       Pd2Ag5
_chemical_formula_sum              "Pd2 Ag5"
_cell_length_a       7.09179
_cell_length_b       7.09179
_cell_length_c       8.989
_cell_angle_alpha    48.548
_cell_angle_beta     48.548
_cell_angle_gamma    23.2278

_space_group_name_H-M_alt    "P 1"
_space_group_IT_number       1

loop_
  _space_group_symop_operation_xyz
  'x, y, z'

loop_
  _atom_site_type_symbol
  _atom_site_label
  _atom_site_symmetry_multiplicity
  _atom_site_fract_x
  _atom_site_fract_y
  _atom_site_fract_z
  _atom_site_occupancy
  Pd  Pd1       1.0  0.63955  0.63955  0.64214  1.0000
  Pd  Pd2       1.0  0.36045  0.36045  0.35786  1.0000
  Ag  Ag1       1.0  0.37081  0.37081  0.89488  1.0000
  Ag  Ag2       1.0  0.62919  0.62919  0.10512  1.0000
  Ag  Ag3       1.0  0.00000  0.00000  0.00000  1.0000
  Ag  Ag4       1.0  0.84777  0.84777  0.64056  1.0000
  Ag  Ag5       1.0  0.15223  0.15223  0.35944  1.0000
