data_image0
_chemical_formula_structural       Ag8Pd
_chemical_formula_sum              "Ag8 Pd1"
_cell_length_a       6.58908
_cell_length_b       6.58908
_cell_length_c       6.58908
_cell_angle_alpha    60
_cell_angle_beta     60
_cell_angle_gamma    60

_space_group_name_H-M_alt    "P 1"
_space_group_IT_number       1

loop_
  _space_group_symop_operation_xyz
  'x, y, z'

loop_
  _atom_site_type_symbol
  _atom_site_label
  _atom_site_symmetry_multiplicity
  _atom_site_fract_x
  _atom_site_fract_y
  _atom_site_fract_z
  _atom_site_occupancy
  Ag  Ag1       1.0  0.62254  0.12582  0.12582  1.0000
  Ag  Ag2       1.0  0.04975  0.65008  0.65008  1.0000
  Ag  Ag3       1.0  0.65008  0.65008  0.04975  1.0000
  Ag  Ag4       1.0  0.12582  0.62254  0.12582  1.0000
  Ag  Ag5       1.0  0.12582  0.12582  0.12582  1.0000
  Ag  Ag6       1.0  0.65008  0.65008  0.65008  1.0000
  Ag  Ag7       1.0  0.65008  0.04975  0.65008  1.0000
  Ag  Ag8       1.0  0.12582  0.12582  0.62254  1.0000
  Pd  Pd1       1.0  0.50000  0.50000  0.50000  1.0000
