data_image0
_chemical_formula_structural       PdHg
_chemical_formula_sum              "Pd1 Hg1"
_cell_length_a       3.11001
_cell_length_b       3.16016
_cell_length_c       4.4072
_cell_angle_alpha    90.0747
_cell_angle_beta     89.9225
_cell_angle_gamma    119.803

_space_group_name_H-M_alt    "P 1"
_space_group_IT_number       1

loop_
  _space_group_symop_operation_xyz
  'x, y, z'

loop_
  _atom_site_type_symbol
  _atom_site_label
  _atom_site_symmetry_multiplicity
  _atom_site_fract_x
  _atom_site_fract_y
  _atom_site_fract_z
  _atom_site_occupancy
  Pd  Pd1       1.0  0.66260  0.32940  0.74969  1.0000
  Hg  Hg1       1.0  0.33740  0.67060  0.25031  1.0000
