data_image0
_chemical_formula_structural       Pd3Au34
_chemical_formula_sum              "Pd3 Au34"
_cell_length_a       11.6162
_cell_length_b       11.6162
_cell_length_c       11.6162
_cell_angle_alpha    60.4194
_cell_angle_beta     60.4194
_cell_angle_gamma    60.4193

_space_group_name_H-M_alt    "P 1"
_space_group_IT_number       1

loop_
  _space_group_symop_operation_xyz
  'x, y, z'

loop_
  _atom_site_type_symbol
  _atom_site_label
  _atom_site_symmetry_multiplicity
  _atom_site_fract_x
  _atom_site_fract_y
  _atom_site_fract_z
  _atom_site_occupancy
  Pd  Pd1       1.0  0.37509  0.37509  0.37509  1.0000
  Pd  Pd2       1.0  0.62491  0.62491  0.62491  1.0000
  Pd  Pd3       1.0  0.00000  0.00000  0.00000  1.0000
  Au  Au1       1.0  0.21911  0.21911  0.21911  1.0000
  Au  Au2       1.0  0.84231  0.21826  0.21826  1.0000
  Au  Au3       1.0  0.21826  0.21826  0.84231  1.0000
  Au  Au4       1.0  0.21826  0.84231  0.21826  1.0000
  Au  Au5       1.0  0.78089  0.78089  0.78089  1.0000
  Au  Au6       1.0  0.15769  0.78174  0.78174  1.0000
  Au  Au7       1.0  0.78174  0.78174  0.15769  1.0000
  Au  Au8       1.0  0.78174  0.15769  0.78174  1.0000
  Au  Au9       1.0  0.12387  0.12387  0.12387  1.0000
  Au  Au10      1.0  0.87613  0.87613  0.87613  1.0000
  Au  Au11      1.0  0.37323  0.99139  0.37323  1.0000
  Au  Au12      1.0  0.76514  0.37206  0.99075  1.0000
  Au  Au13      1.0  0.99075  0.37206  0.76514  1.0000
  Au  Au14      1.0  0.37179  0.76366  0.37179  1.0000
  Au  Au15      1.0  0.37206  0.99075  0.76514  1.0000
  Au  Au16      1.0  0.99139  0.37323  0.37323  1.0000
  Au  Au17      1.0  0.76366  0.37179  0.37179  1.0000
  Au  Au18      1.0  0.37206  0.76514  0.99075  1.0000
  Au  Au19      1.0  0.76514  0.99075  0.37206  1.0000
  Au  Au20      1.0  0.37179  0.37179  0.76366  1.0000
  Au  Au21      1.0  0.37323  0.37323  0.99139  1.0000
  Au  Au22      1.0  0.99075  0.76514  0.37206  1.0000
  Au  Au23      1.0  0.62677  0.00861  0.62677  1.0000
  Au  Au24      1.0  0.23486  0.62794  0.00925  1.0000
  Au  Au25      1.0  0.00925  0.62794  0.23486  1.0000
  Au  Au26      1.0  0.62821  0.23634  0.62821  1.0000
  Au  Au27      1.0  0.62794  0.00925  0.23486  1.0000
  Au  Au28      1.0  0.00861  0.62677  0.62677  1.0000
  Au  Au29      1.0  0.23634  0.62821  0.62821  1.0000
  Au  Au30      1.0  0.62794  0.23486  0.00925  1.0000
  Au  Au31      1.0  0.23486  0.00925  0.62794  1.0000
  Au  Au32      1.0  0.62821  0.62821  0.23634  1.0000
  Au  Au33      1.0  0.62677  0.62677  0.00861  1.0000
  Au  Au34      1.0  0.00925  0.23486  0.62794  1.0000
