data_image0
_chemical_formula_structural       Ag10Pd4
_chemical_formula_sum              "Ag10 Pd4"
_cell_length_a       7.55609
_cell_length_b       7.55609
_cell_length_c       6.88582
_cell_angle_alpha    65.7095
_cell_angle_beta     65.7095
_cell_angle_gamma    44.4856

_space_group_name_H-M_alt    "P 1"
_space_group_IT_number       1

loop_
  _space_group_symop_operation_xyz
  'x, y, z'

loop_
  _atom_site_type_symbol
  _atom_site_label
  _atom_site_symmetry_multiplicity
  _atom_site_fract_x
  _atom_site_fract_y
  _atom_site_fract_z
  _atom_site_occupancy
  Ag  Ag1       1.0  0.24914  0.75086  0.00000  1.0000
  Ag  Ag2       1.0  0.75086  0.24914  0.00000  1.0000
  Ag  Ag3       1.0  0.63311  0.63311  0.14817  1.0000
  Ag  Ag4       1.0  0.36689  0.36689  0.85183  1.0000
  Ag  Ag5       1.0  0.07888  0.07888  0.58054  1.0000
  Ag  Ag6       1.0  0.92112  0.92112  0.41946  1.0000
  Ag  Ag7       1.0  0.47640  0.97572  0.72327  1.0000
  Ag  Ag8       1.0  0.02428  0.52360  0.27673  1.0000
  Ag  Ag9       1.0  0.97572  0.47640  0.72327  1.0000
  Ag  Ag10      1.0  0.52360  0.02428  0.27673  1.0000
  Pd  Pd1       1.0  0.14121  0.14121  0.12772  1.0000
  Pd  Pd2       1.0  0.85879  0.85879  0.87228  1.0000
  Pd  Pd3       1.0  0.58658  0.58658  0.58634  1.0000
  Pd  Pd4       1.0  0.41342  0.41342  0.41366  1.0000
