data_image0
_chemical_formula_structural       PdAu13
_chemical_formula_sum              "Pd1 Au13"
_cell_length_a       6.98751
_cell_length_b       6.98751
_cell_length_c       5.79985
_cell_angle_alpha    79.6365
_cell_angle_beta     79.6365
_cell_angle_gamma    70.9337

_space_group_name_H-M_alt    "P 1"
_space_group_IT_number       1

loop_
  _space_group_symop_operation_xyz
  'x, y, z'

loop_
  _atom_site_type_symbol
  _atom_site_label
  _atom_site_symmetry_multiplicity
  _atom_site_fract_x
  _atom_site_fract_y
  _atom_site_fract_z
  _atom_site_occupancy
  Pd  Pd1       1.0  0.00000  0.00000  0.00000  1.0000
  Au  Au1       1.0  0.61414  0.61414  0.06638  1.0000
  Au  Au2       1.0  0.38586  0.38586  0.93362  1.0000
  Au  Au3       1.0  0.76807  0.76807  0.37678  1.0000
  Au  Au4       1.0  0.23193  0.23193  0.62322  1.0000
  Au  Au5       1.0  0.62068  0.21658  0.31481  1.0000
  Au  Au6       1.0  0.37932  0.78342  0.68519  1.0000
  Au  Au7       1.0  0.78342  0.37932  0.68519  1.0000
  Au  Au8       1.0  0.21658  0.62068  0.31481  1.0000
  Au  Au9       1.0  0.35906  0.99650  0.20062  1.0000
  Au  Au10      1.0  0.64094  0.00350  0.79938  1.0000
  Au  Au11      1.0  0.00350  0.64094  0.79938  1.0000
  Au  Au12      1.0  0.99650  0.35906  0.20062  1.0000
  Au  Au13      1.0  0.00000  0.00000  0.50000  1.0000
