data_image0
_chemical_formula_structural       Pd4Ag6
_chemical_formula_sum              "Pd4 Ag6"
_cell_length_a       8.55966
_cell_length_b       7.68527
_cell_length_c       5.35453
_cell_angle_alpha    79.8763
_cell_angle_beta     62.1125
_cell_angle_gamma    38.0111

_space_group_name_H-M_alt    "P 1"
_space_group_IT_number       1

loop_
  _space_group_symop_operation_xyz
  'x, y, z'

loop_
  _atom_site_type_symbol
  _atom_site_label
  _atom_site_symmetry_multiplicity
  _atom_site_fract_x
  _atom_site_fract_y
  _atom_site_fract_z
  _atom_site_occupancy
  Pd  Pd1       1.0  0.40802  0.40802  0.59198  1.0000
  Pd  Pd2       1.0  0.59198  0.59198  0.40802  1.0000
  Pd  Pd3       1.0  0.95725  0.95725  0.54275  1.0000
  Pd  Pd4       1.0  0.54275  0.54275  0.95725  1.0000
  Ag  Ag1       1.0  0.60201  0.89799  0.60201  1.0000
  Ag  Ag2       1.0  0.89799  0.60201  0.89799  1.0000
  Ag  Ag3       1.0  0.09329  0.09329  0.90671  1.0000
  Ag  Ag4       1.0  0.90671  0.90671  0.09329  1.0000
  Ag  Ag5       1.0  0.15365  0.15365  0.34635  1.0000
  Ag  Ag6       1.0  0.34635  0.34635  0.15365  1.0000
