data_image0
_chemical_formula_structural       Pd2Au12
_chemical_formula_sum              "Pd2 Au12"
_cell_length_a       2.75873
_cell_length_b       9.12636
_cell_length_c       14.9708
_cell_angle_alpha    63.6918
_cell_angle_beta     90
_cell_angle_gamma    90

_space_group_name_H-M_alt    "P 1"
_space_group_IT_number       1

loop_
  _space_group_symop_operation_xyz
  'x, y, z'

loop_
  _atom_site_type_symbol
  _atom_site_label
  _atom_site_symmetry_multiplicity
  _atom_site_fract_x
  _atom_site_fract_y
  _atom_site_fract_z
  _atom_site_occupancy
  Pd  Pd1       1.0  0.75000  0.14766  0.81219  1.0000
  Pd  Pd2       1.0  0.25000  0.85234  0.18781  1.0000
  Au  Au1       1.0  0.75000  0.66829  0.74288  1.0000
  Au  Au2       1.0  0.25000  0.33171  0.25712  1.0000
  Au  Au3       1.0  0.25000  0.89328  0.96579  1.0000
  Au  Au4       1.0  0.75000  0.10672  0.03421  1.0000
  Au  Au5       1.0  0.25000  0.63119  0.91943  1.0000
  Au  Au6       1.0  0.75000  0.36881  0.08057  1.0000
  Au  Au7       1.0  0.25000  0.36332  0.86823  1.0000
  Au  Au8       1.0  0.75000  0.63668  0.13177  1.0000
  Au  Au9       1.0  0.25000  0.21039  0.64238  1.0000
  Au  Au10      1.0  0.75000  0.78961  0.35762  1.0000
  Au  Au11      1.0  0.25000  0.25307  0.45334  1.0000
  Au  Au12      1.0  0.75000  0.74693  0.54666  1.0000
