data_image0
_chemical_formula_structural       Au6Pd2
_chemical_formula_sum              "Au6 Pd2"
_cell_length_a       5.41722
_cell_length_b       4.86252
_cell_length_c       6.96614
_cell_angle_alpha    52.3004
_cell_angle_beta     85.9156
_cell_angle_gamma    88.0416

_space_group_name_H-M_alt    "P 1"
_space_group_IT_number       1

loop_
  _space_group_symop_operation_xyz
  'x, y, z'

loop_
  _atom_site_type_symbol
  _atom_site_label
  _atom_site_symmetry_multiplicity
  _atom_site_fract_x
  _atom_site_fract_y
  _atom_site_fract_z
  _atom_site_occupancy
  Au  Au1       1.0  0.75385  0.39766  0.54647  1.0000
  Au  Au2       1.0  0.21978  0.34742  0.16887  1.0000
  Au  Au3       1.0  0.71114  0.09961  0.31727  1.0000
  Au  Au4       1.0  0.78022  0.65258  0.83113  1.0000
  Au  Au5       1.0  0.28886  0.90039  0.68273  1.0000
  Au  Au6       1.0  0.24615  0.60234  0.45353  1.0000
  Pd  Pd1       1.0  0.50000  0.00000  0.00000  1.0000
  Pd  Pd2       1.0  0.00000  0.00000  0.00000  1.0000
