data_image0
_chemical_formula_structural       Ag5Pd
_chemical_formula_sum              "Ag5 Pd1"
_cell_length_a       14.3582
_cell_length_b       14.3582
_cell_length_c       14.3582
_cell_angle_alpha    11.6378
_cell_angle_beta     11.6378
_cell_angle_gamma    11.6378

_space_group_name_H-M_alt    "P 1"
_space_group_IT_number       1

loop_
  _space_group_symop_operation_xyz
  'x, y, z'

loop_
  _atom_site_type_symbol
  _atom_site_label
  _atom_site_symmetry_multiplicity
  _atom_site_fract_x
  _atom_site_fract_y
  _atom_site_fract_z
  _atom_site_occupancy
  Ag  Ag1       1.0  0.60984  0.60984  0.60984  1.0000
  Ag  Ag2       1.0  0.00000  0.00000  0.00000  1.0000
  Ag  Ag3       1.0  0.39016  0.39016  0.39016  1.0000
  Ag  Ag4       1.0  0.22008  0.22008  0.22008  1.0000
  Ag  Ag5       1.0  0.77992  0.77992  0.77992  1.0000
  Pd  Pd1       1.0  0.50000  0.50000  0.50000  1.0000
