data_image0
_chemical_formula_structural       Pd4Au9
_chemical_formula_sum              "Pd4 Au9"
_cell_length_a       7.81064
_cell_length_b       7.81064
_cell_length_c       7.81064
_cell_angle_alpha    132.551
_cell_angle_beta     132.551
_cell_angle_gamma    69.3595

_space_group_name_H-M_alt    "P 1"
_space_group_IT_number       1

loop_
  _space_group_symop_operation_xyz
  'x, y, z'

loop_
  _atom_site_type_symbol
  _atom_site_label
  _atom_site_symmetry_multiplicity
  _atom_site_fract_x
  _atom_site_fract_y
  _atom_site_fract_z
  _atom_site_occupancy
  Pd  Pd1       1.0  0.76499  0.76499  0.00000  1.0000
  Pd  Pd2       1.0  0.23501  0.23501  0.00000  1.0000
  Pd  Pd3       1.0  0.50000  0.00000  0.50000  1.0000
  Pd  Pd4       1.0  0.00000  0.50000  0.50000  1.0000
  Au  Au1       1.0  0.13743  0.13743  0.53295  1.0000
  Au  Au2       1.0  0.60447  0.60447  0.46705  1.0000
  Au  Au3       1.0  0.13743  0.60447  0.00000  1.0000
  Au  Au4       1.0  0.60447  0.13743  0.00000  1.0000
  Au  Au5       1.0  0.86257  0.86257  0.46705  1.0000
  Au  Au6       1.0  0.39553  0.39553  0.53295  1.0000
  Au  Au7       1.0  0.86257  0.39553  0.00000  1.0000
  Au  Au8       1.0  0.39553  0.86257  0.00000  1.0000
  Au  Au9       1.0  0.00000  0.00000  0.00000  1.0000
