data_image0
_chemical_formula_structural       PdAg3
_chemical_formula_sum              "Pd1 Ag3"
_cell_length_a       5.40434
_cell_length_b       5.40434
_cell_length_c       5.40434
_cell_angle_alpha    116.957
_cell_angle_beta     116.957
_cell_angle_gamma    116.957

_space_group_name_H-M_alt    "P 1"
_space_group_IT_number       1

loop_
  _space_group_symop_operation_xyz
  'x, y, z'

loop_
  _atom_site_type_symbol
  _atom_site_label
  _atom_site_symmetry_multiplicity
  _atom_site_fract_x
  _atom_site_fract_y
  _atom_site_fract_z
  _atom_site_occupancy
  Pd  Pd1       1.0  0.97615  0.97615  0.97615  1.0000
  Ag  Ag1       1.0  0.82187  0.35099  0.35099  1.0000
  Ag  Ag2       1.0  0.35099  0.82187  0.35099  1.0000
  Ag  Ag3       1.0  0.35099  0.35099  0.82187  1.0000
