data_image0
_chemical_formula_structural       Au9Pd6
_chemical_formula_sum              "Au9 Pd6"
_cell_length_a       6.65535
_cell_length_b       6.65535
_cell_length_c       6.65535
_cell_angle_alpha    75.5972
_cell_angle_beta     75.5972
_cell_angle_gamma    75.5972

_space_group_name_H-M_alt    "P 1"
_space_group_IT_number       1

loop_
  _space_group_symop_operation_xyz
  'x, y, z'

loop_
  _atom_site_type_symbol
  _atom_site_label
  _atom_site_symmetry_multiplicity
  _atom_site_fract_x
  _atom_site_fract_y
  _atom_site_fract_z
  _atom_site_occupancy
  Au  Au1       1.0  0.00000  0.00000  0.00000  1.0000
  Au  Au2       1.0  0.77677  0.77677  0.77677  1.0000
  Au  Au3       1.0  0.22323  0.22323  0.22323  1.0000
  Au  Au4       1.0  0.39517  0.56663  0.80696  1.0000
  Au  Au5       1.0  0.80696  0.39517  0.56663  1.0000
  Au  Au6       1.0  0.56663  0.80696  0.39517  1.0000
  Au  Au7       1.0  0.60483  0.43337  0.19304  1.0000
  Au  Au8       1.0  0.19304  0.60483  0.43337  1.0000
  Au  Au9       1.0  0.43337  0.19304  0.60483  1.0000
  Pd  Pd1       1.0  0.15810  0.95090  0.60754  1.0000
  Pd  Pd2       1.0  0.60754  0.15810  0.95090  1.0000
  Pd  Pd3       1.0  0.95090  0.60754  0.15810  1.0000
  Pd  Pd4       1.0  0.84190  0.04910  0.39246  1.0000
  Pd  Pd5       1.0  0.39246  0.84190  0.04910  1.0000
  Pd  Pd6       1.0  0.04910  0.39246  0.84190  1.0000
