data_image0
_chemical_formula_structural       Pd3Ag12
_chemical_formula_sum              "Pd3 Ag12"
_cell_length_a       6.9771
_cell_length_b       6.9771
_cell_length_c       6.9771
_cell_angle_alpha    90.0958
_cell_angle_beta     90.0958
_cell_angle_gamma    90.0958

_space_group_name_H-M_alt    "P 1"
_space_group_IT_number       1

loop_
  _space_group_symop_operation_xyz
  'x, y, z'

loop_
  _atom_site_type_symbol
  _atom_site_label
  _atom_site_symmetry_multiplicity
  _atom_site_fract_x
  _atom_site_fract_y
  _atom_site_fract_z
  _atom_site_occupancy
  Pd  Pd1       1.0  0.28476  0.28476  0.28476  1.0000
  Pd  Pd2       1.0  0.71524  0.71524  0.71524  1.0000
  Pd  Pd3       1.0  0.50000  0.50000  0.50000  1.0000
  Ag  Ag1       1.0  0.30465  0.73100  0.73100  1.0000
  Ag  Ag2       1.0  0.73100  0.73100  0.30465  1.0000
  Ag  Ag3       1.0  0.73100  0.30465  0.73100  1.0000
  Ag  Ag4       1.0  0.26900  0.69535  0.26900  1.0000
  Ag  Ag5       1.0  0.26900  0.26900  0.69535  1.0000
  Ag  Ag6       1.0  0.69535  0.26900  0.26900  1.0000
  Ag  Ag7       1.0  0.69874  0.99052  0.99052  1.0000
  Ag  Ag8       1.0  0.99052  0.99052  0.69874  1.0000
  Ag  Ag9       1.0  0.99052  0.69874  0.99052  1.0000
  Ag  Ag10      1.0  0.00948  0.30126  0.00948  1.0000
  Ag  Ag11      1.0  0.00948  0.00948  0.30126  1.0000
  Ag  Ag12      1.0  0.30126  0.00948  0.00948  1.0000
