data_image0
_chemical_formula_structural       Ag5Pd3
_chemical_formula_sum              "Ag5 Pd3"
_cell_length_a       5.21271
_cell_length_b       5.21271
_cell_length_c       5.21271
_cell_angle_alpha    94.514
_cell_angle_beta     94.514
_cell_angle_gamma    94.514

_space_group_name_H-M_alt    "P 1"
_space_group_IT_number       1

loop_
  _space_group_symop_operation_xyz
  'x, y, z'

loop_
  _atom_site_type_symbol
  _atom_site_label
  _atom_site_symmetry_multiplicity
  _atom_site_fract_x
  _atom_site_fract_y
  _atom_site_fract_z
  _atom_site_occupancy
  Ag  Ag1       1.0  0.43346  0.43346  0.43346  1.0000
  Ag  Ag2       1.0  0.68866  0.97251  0.40467  1.0000
  Ag  Ag3       1.0  0.97251  0.40467  0.68866  1.0000
  Ag  Ag4       1.0  0.40467  0.68866  0.97251  1.0000
  Ag  Ag5       1.0  0.93958  0.93958  0.93958  1.0000
  Pd  Pd1       1.0  0.18786  0.90260  0.47066  1.0000
  Pd  Pd2       1.0  0.90260  0.47066  0.18786  1.0000
  Pd  Pd3       1.0  0.47066  0.18786  0.90260  1.0000
