data_image0
_chemical_formula_structural       Au6Pd6
_chemical_formula_sum              "Au6 Pd6"
_cell_length_a       7.07035
_cell_length_b       7.07035
_cell_length_c       5.48571
_cell_angle_alpha    90
_cell_angle_beta     90
_cell_angle_gamma    120

_space_group_name_H-M_alt    "P 1"
_space_group_IT_number       1

loop_
  _space_group_symop_operation_xyz
  'x, y, z'

loop_
  _atom_site_type_symbol
  _atom_site_label
  _atom_site_symmetry_multiplicity
  _atom_site_fract_x
  _atom_site_fract_y
  _atom_site_fract_z
  _atom_site_occupancy
  Au  Au1       1.0  0.66640  0.00000  0.00000  1.0000
  Au  Au2       1.0  0.33360  0.33360  0.00000  1.0000
  Au  Au3       1.0  0.00000  0.66640  0.00000  1.0000
  Au  Au4       1.0  0.33278  0.00000  0.50000  1.0000
  Au  Au5       1.0  0.66722  0.66722  0.50000  1.0000
  Au  Au6       1.0  0.00000  0.33278  0.50000  1.0000
  Pd  Pd1       1.0  0.00000  0.00000  0.24982  1.0000
  Pd  Pd2       1.0  0.00000  0.00000  0.75018  1.0000
  Pd  Pd3       1.0  0.33333  0.66667  0.24989  1.0000
  Pd  Pd4       1.0  0.33333  0.66667  0.75011  1.0000
  Pd  Pd5       1.0  0.66667  0.33333  0.75011  1.0000
  Pd  Pd6       1.0  0.66667  0.33333  0.24989  1.0000
