data_image0
_chemical_formula_structural       PdAg3
_chemical_formula_sum              "Pd1 Ag3"
_cell_length_a       5.19175
_cell_length_b       5.19175
_cell_length_c       4.84672
_cell_angle_alpha    75.747
_cell_angle_beta     75.747
_cell_angle_gamma    123.844

_space_group_name_H-M_alt    "P 1"
_space_group_IT_number       1

loop_
  _space_group_symop_operation_xyz
  'x, y, z'

loop_
  _atom_site_type_symbol
  _atom_site_label
  _atom_site_symmetry_multiplicity
  _atom_site_fract_x
  _atom_site_fract_y
  _atom_site_fract_z
  _atom_site_occupancy
  Pd  Pd1       1.0  0.96217  0.03783  0.00000  1.0000
  Ag  Ag1       1.0  0.87650  0.44911  0.17120  1.0000
  Ag  Ag2       1.0  0.55089  0.12350  0.82880  1.0000
  Ag  Ag3       1.0  0.11045  0.88955  0.50000  1.0000
