data_image0
_chemical_formula_structural       Ag8Pd6
_chemical_formula_sum              "Ag8 Pd6"
_cell_length_a       5.45863
_cell_length_b       5.45863
_cell_length_c       10.1508
_cell_angle_alpha    81.2992
_cell_angle_beta     81.2992
_cell_angle_gamma    57.2204

_space_group_name_H-M_alt    "P 1"
_space_group_IT_number       1

loop_
  _space_group_symop_operation_xyz
  'x, y, z'

loop_
  _atom_site_type_symbol
  _atom_site_label
  _atom_site_symmetry_multiplicity
  _atom_site_fract_x
  _atom_site_fract_y
  _atom_site_fract_z
  _atom_site_occupancy
  Ag  Ag1       1.0  0.36576  0.32514  0.28772  1.0000
  Ag  Ag2       1.0  0.67486  0.63424  0.21228  1.0000
  Ag  Ag3       1.0  0.74688  0.24996  0.00981  1.0000
  Ag  Ag4       1.0  0.32514  0.36576  0.78772  1.0000
  Ag  Ag5       1.0  0.24996  0.74688  0.50981  1.0000
  Ag  Ag6       1.0  0.25312  0.75004  0.99019  1.0000
  Ag  Ag7       1.0  0.75004  0.25312  0.49019  1.0000
  Ag  Ag8       1.0  0.63424  0.67486  0.71228  1.0000
  Pd  Pd1       1.0  0.76566  0.75874  0.44373  1.0000
  Pd  Pd2       1.0  0.75874  0.76566  0.94373  1.0000
  Pd  Pd3       1.0  0.24126  0.23434  0.05627  1.0000
  Pd  Pd4       1.0  0.96976  0.03024  0.75000  1.0000
  Pd  Pd5       1.0  0.23434  0.24126  0.55627  1.0000
  Pd  Pd6       1.0  0.03024  0.96976  0.25000  1.0000
