data_image0
_chemical_formula_structural       Au3Pd3
_chemical_formula_sum              "Au3 Pd3"
_cell_length_a       4.93475
_cell_length_b       4.93475
_cell_length_c       4.7486
_cell_angle_alpha    90.0241
_cell_angle_beta     90.0241
_cell_angle_gamma    60.6114

_space_group_name_H-M_alt    "P 1"
_space_group_IT_number       1

loop_
  _space_group_symop_operation_xyz
  'x, y, z'

loop_
  _atom_site_type_symbol
  _atom_site_label
  _atom_site_symmetry_multiplicity
  _atom_site_fract_x
  _atom_site_fract_y
  _atom_site_fract_z
  _atom_site_occupancy
  Au  Au1       1.0  0.26109  0.73891  0.00000  1.0000
  Au  Au2       1.0  0.90687  0.75520  0.49951  1.0000
  Au  Au3       1.0  0.24480  0.09313  0.50049  1.0000
  Pd  Pd1       1.0  0.92034  0.41144  0.99994  1.0000
  Pd  Pd2       1.0  0.58856  0.07966  0.00006  1.0000
  Pd  Pd3       1.0  0.57833  0.42167  0.50000  1.0000
