data_image0
_chemical_formula_structural       Pd3Ag4
_chemical_formula_sum              "Pd3 Ag4"
_cell_length_a       10.8844
_cell_length_b       10.8844
_cell_length_c       10.8844
_cell_angle_alpha    162.329
_cell_angle_beta     162.329
_cell_angle_gamma    25.0911

_space_group_name_H-M_alt    "P 1"
_space_group_IT_number       1

loop_
  _space_group_symop_operation_xyz
  'x, y, z'

loop_
  _atom_site_type_symbol
  _atom_site_label
  _atom_site_symmetry_multiplicity
  _atom_site_fract_x
  _atom_site_fract_y
  _atom_site_fract_z
  _atom_site_occupancy
  Pd  Pd1       1.0  0.71616  0.71616  1.00000  1.0000
  Pd  Pd2       1.0  0.28384  0.28384  0.00000  1.0000
  Pd  Pd3       1.0  0.00000  0.00000  0.00000  1.0000
  Ag  Ag1       1.0  0.57176  0.57176  0.00000  1.0000
  Ag  Ag2       1.0  0.42824  0.42824  0.00000  1.0000
  Ag  Ag3       1.0  0.85467  0.85467  1.00000  1.0000
  Ag  Ag4       1.0  0.14533  0.14533  0.00000  1.0000
