data_image0
_chemical_formula_structural       Pd4Ag14
_chemical_formula_sum              "Pd4 Ag14"
_cell_length_a       6.97221
_cell_length_b       5.15601
_cell_length_c       9.45075
_cell_angle_alpha    90
_cell_angle_beta     90
_cell_angle_gamma    90

_space_group_name_H-M_alt    "P 1"
_space_group_IT_number       1

loop_
  _space_group_symop_operation_xyz
  'x, y, z'

loop_
  _atom_site_type_symbol
  _atom_site_label
  _atom_site_symmetry_multiplicity
  _atom_site_fract_x
  _atom_site_fract_y
  _atom_site_fract_z
  _atom_site_occupancy
  Pd  Pd1       1.0  0.00000  0.82491  0.86592  1.0000
  Pd  Pd2       1.0  0.00000  0.17509  0.13408  1.0000
  Pd  Pd3       1.0  0.00000  0.32491  0.63408  1.0000
  Pd  Pd4       1.0  0.00000  0.67509  0.36592  1.0000
  Ag  Ag1       1.0  0.50000  0.00000  0.00000  1.0000
  Ag  Ag2       1.0  0.50000  0.50000  0.50000  1.0000
  Ag  Ag3       1.0  0.50000  0.62832  0.80038  1.0000
  Ag  Ag4       1.0  0.50000  0.37168  0.19962  1.0000
  Ag  Ag5       1.0  0.50000  0.12832  0.69962  1.0000
  Ag  Ag6       1.0  0.50000  0.87168  0.30038  1.0000
  Ag  Ag7       1.0  0.79786  0.81104  0.61104  1.0000
  Ag  Ag8       1.0  0.79786  0.18896  0.38896  1.0000
  Ag  Ag9       1.0  0.20214  0.31104  0.88896  1.0000
  Ag  Ag10      1.0  0.20214  0.68896  0.11104  1.0000
  Ag  Ag11      1.0  0.20214  0.18896  0.38896  1.0000
  Ag  Ag12      1.0  0.20214  0.81104  0.61104  1.0000
  Ag  Ag13      1.0  0.79786  0.68896  0.11104  1.0000
  Ag  Ag14      1.0  0.79786  0.31104  0.88896  1.0000
