data_image0
_chemical_formula_structural       Ag10Pd6
_chemical_formula_sum              "Ag10 Pd6"
_cell_length_a       7.5566
_cell_length_b       7.5566
_cell_length_c       7.5566
_cell_angle_alpha    124.166
_cell_angle_beta     124.166
_cell_angle_gamma    82.9235

_space_group_name_H-M_alt    "P 1"
_space_group_IT_number       1

loop_
  _space_group_symop_operation_xyz
  'x, y, z'

loop_
  _atom_site_type_symbol
  _atom_site_label
  _atom_site_symmetry_multiplicity
  _atom_site_fract_x
  _atom_site_fract_y
  _atom_site_fract_z
  _atom_site_occupancy
  Ag  Ag1       1.0  0.49711  0.01505  0.18744  1.0000
  Ag  Ag2       1.0  0.98495  0.17240  0.48206  1.0000
  Ag  Ag3       1.0  0.69034  0.50289  0.51794  1.0000
  Ag  Ag4       1.0  0.82760  0.30966  0.81256  1.0000
  Ag  Ag5       1.0  0.49952  0.97686  0.79453  1.0000
  Ag  Ag6       1.0  0.02314  0.81768  0.52266  1.0000
  Ag  Ag7       1.0  0.29502  0.50048  0.47734  1.0000
  Ag  Ag8       1.0  0.18232  0.70498  0.20547  1.0000
  Ag  Ag9       1.0  0.25998  0.25998  0.00000  1.0000
  Ag  Ag10      1.0  0.74002  0.74002  0.00000  1.0000
  Pd  Pd1       1.0  0.84729  0.35923  0.21776  1.0000
  Pd  Pd2       1.0  0.64077  0.85852  0.48805  1.0000
  Pd  Pd3       1.0  0.37047  0.15271  0.51195  1.0000
  Pd  Pd4       1.0  0.14148  0.62953  0.78224  1.0000
  Pd  Pd5       1.0  0.00000  0.00000  0.00000  1.0000
  Pd  Pd6       1.0  0.50000  0.50000  1.00000  1.0000
