data_image0
_chemical_formula_structural       Ag18Pd8
_chemical_formula_sum              "Ag18 Pd8"
_cell_length_a       8.60291
_cell_length_b       8.60291
_cell_length_c       8.60291
_cell_angle_alpha    65.7757
_cell_angle_beta     65.7757
_cell_angle_gamma    65.7757

_space_group_name_H-M_alt    "P 1"
_space_group_IT_number       1

loop_
  _space_group_symop_operation_xyz
  'x, y, z'

loop_
  _atom_site_type_symbol
  _atom_site_label
  _atom_site_symmetry_multiplicity
  _atom_site_fract_x
  _atom_site_fract_y
  _atom_site_fract_z
  _atom_site_occupancy
  Ag  Ag1       1.0  0.04855  0.86873  0.69178  1.0000
  Ag  Ag2       1.0  0.12895  0.19834  0.45684  1.0000
  Ag  Ag3       1.0  0.19834  0.45684  0.12895  1.0000
  Ag  Ag4       1.0  0.81829  0.49618  0.52464  1.0000
  Ag  Ag5       1.0  0.86873  0.69178  0.04855  1.0000
  Ag  Ag6       1.0  0.95145  0.30822  0.13127  1.0000
  Ag  Ag7       1.0  0.69178  0.04855  0.86873  1.0000
  Ag  Ag8       1.0  0.45684  0.12895  0.19834  1.0000
  Ag  Ag9       1.0  0.87105  0.54316  0.80166  1.0000
  Ag  Ag10      1.0  0.49618  0.52464  0.81829  1.0000
  Ag  Ag11      1.0  0.80166  0.87105  0.54316  1.0000
  Ag  Ag12      1.0  0.54316  0.80166  0.87105  1.0000
  Ag  Ag13      1.0  0.52464  0.81829  0.49618  1.0000
  Ag  Ag14      1.0  0.50382  0.18171  0.47536  1.0000
  Ag  Ag15      1.0  0.47536  0.50382  0.18171  1.0000
  Ag  Ag16      1.0  0.18171  0.47536  0.50382  1.0000
  Ag  Ag17      1.0  0.13127  0.95145  0.30822  1.0000
  Ag  Ag18      1.0  0.30822  0.13127  0.95145  1.0000
  Pd  Pd1       1.0  0.19954  0.50000  0.80046  1.0000
  Pd  Pd2       1.0  0.80046  0.19954  0.50000  1.0000
  Pd  Pd3       1.0  1.00000  0.72651  0.27349  1.0000
  Pd  Pd4       1.0  0.50000  0.80046  0.19954  1.0000
  Pd  Pd5       1.0  0.00000  0.00000  0.00000  1.0000
  Pd  Pd6       1.0  0.72651  0.27349  0.00000  1.0000
  Pd  Pd7       1.0  0.50000  0.50000  0.50000  1.0000
  Pd  Pd8       1.0  0.27349  0.00000  0.72651  1.0000
