data_image0
_chemical_formula_structural       Pd8Ag12
_chemical_formula_sum              "Pd8 Ag12"
_cell_length_a       5.67976
_cell_length_b       5.67976
_cell_length_c       13.6106
_cell_angle_alpha    90
_cell_angle_beta     90
_cell_angle_gamma    120

_space_group_name_H-M_alt    "P 1"
_space_group_IT_number       1

loop_
  _space_group_symop_operation_xyz
  'x, y, z'

loop_
  _atom_site_type_symbol
  _atom_site_label
  _atom_site_symmetry_multiplicity
  _atom_site_fract_x
  _atom_site_fract_y
  _atom_site_fract_z
  _atom_site_occupancy
  Pd  Pd1       1.0  0.00000  0.00000  0.25000  1.0000
  Pd  Pd2       1.0  0.00000  0.00000  0.75000  1.0000
  Pd  Pd3       1.0  0.33333  0.66667  0.25000  1.0000
  Pd  Pd4       1.0  0.66667  0.33333  0.75000  1.0000
  Pd  Pd5       1.0  0.33333  0.66667  0.59374  1.0000
  Pd  Pd6       1.0  0.66667  0.33333  0.09374  1.0000
  Pd  Pd7       1.0  0.66667  0.33333  0.40626  1.0000
  Pd  Pd8       1.0  0.33333  0.66667  0.90626  1.0000
  Ag  Ag1       1.0  0.16780  0.33561  0.41416  1.0000
  Ag  Ag2       1.0  0.16780  0.83220  0.41416  1.0000
  Ag  Ag3       1.0  0.66439  0.83220  0.41416  1.0000
  Ag  Ag4       1.0  0.83220  0.16780  0.91416  1.0000
  Ag  Ag5       1.0  0.33561  0.16780  0.91416  1.0000
  Ag  Ag6       1.0  0.83220  0.66439  0.91416  1.0000
  Ag  Ag7       1.0  0.83220  0.66439  0.58584  1.0000
  Ag  Ag8       1.0  0.83220  0.16780  0.58584  1.0000
  Ag  Ag9       1.0  0.33561  0.16780  0.58584  1.0000
  Ag  Ag10      1.0  0.16780  0.83220  0.08584  1.0000
  Ag  Ag11      1.0  0.66439  0.83220  0.08584  1.0000
  Ag  Ag12      1.0  0.16780  0.33561  0.08584  1.0000
