data_image0
_chemical_formula_structural       Pd5Au7
_chemical_formula_sum              "Pd5 Au7"
_cell_length_a       2.92739
_cell_length_b       4.92007
_cell_length_c       14.1372
_cell_angle_alpha    90
_cell_angle_beta     90
_cell_angle_gamma    90

_space_group_name_H-M_alt    "P 1"
_space_group_IT_number       1

loop_
  _space_group_symop_operation_xyz
  'x, y, z'

loop_
  _atom_site_type_symbol
  _atom_site_label
  _atom_site_symmetry_multiplicity
  _atom_site_fract_x
  _atom_site_fract_y
  _atom_site_fract_z
  _atom_site_occupancy
  Pd  Pd1       1.0  0.00000  0.68176  0.33194  1.0000
  Pd  Pd2       1.0  0.00000  0.32626  0.16541  1.0000
  Pd  Pd3       1.0  0.00000  0.68176  0.66806  1.0000
  Pd  Pd4       1.0  0.00000  0.32626  0.83459  1.0000
  Pd  Pd5       1.0  0.00000  0.96444  0.00000  1.0000
  Au  Au1       1.0  0.50000  0.46173  0.00000  1.0000
  Au  Au2       1.0  0.50000  0.52156  0.50000  1.0000
  Au  Au3       1.0  0.50000  0.18382  0.32933  1.0000
  Au  Au4       1.0  0.50000  0.82527  0.16572  1.0000
  Au  Au5       1.0  0.50000  0.18382  0.67067  1.0000
  Au  Au6       1.0  0.50000  0.82527  0.83428  1.0000
  Au  Au7       1.0  0.00000  0.01806  0.50000  1.0000
