data_image0
_chemical_formula_structural       Au3Pd3
_chemical_formula_sum              "Au3 Pd3"
_cell_length_a       4.96902
_cell_length_b       4.96902
_cell_length_c       8.09169
_cell_angle_alpha    65.9775
_cell_angle_beta     65.9775
_cell_angle_gamma    33.6811

_space_group_name_H-M_alt    "P 1"
_space_group_IT_number       1

loop_
  _space_group_symop_operation_xyz
  'x, y, z'

loop_
  _atom_site_type_symbol
  _atom_site_label
  _atom_site_symmetry_multiplicity
  _atom_site_fract_x
  _atom_site_fract_y
  _atom_site_fract_z
  _atom_site_occupancy
  Au  Au1       1.0  0.16749  0.16749  0.17504  1.0000
  Au  Au2       1.0  0.50000  0.50000  0.00000  1.0000
  Au  Au3       1.0  0.83251  0.83251  0.82496  1.0000
  Pd  Pd1       1.0  0.16553  0.16553  0.66058  1.0000
  Pd  Pd2       1.0  0.50000  0.50000  0.50000  1.0000
  Pd  Pd3       1.0  0.83447  0.83447  0.33942  1.0000
