data_image0
_chemical_formula_structural       Ag3Pd3
_chemical_formula_sum              "Ag3 Pd3"
_cell_length_a       7.08873
_cell_length_b       7.08873
_cell_length_c       7.08873
_cell_angle_alpha    118.323
_cell_angle_beta     118.323
_cell_angle_gamma    118.323

_space_group_name_H-M_alt    "P 1"
_space_group_IT_number       1

loop_
  _space_group_symop_operation_xyz
  'x, y, z'

loop_
  _atom_site_type_symbol
  _atom_site_label
  _atom_site_symmetry_multiplicity
  _atom_site_fract_x
  _atom_site_fract_y
  _atom_site_fract_z
  _atom_site_occupancy
  Ag  Ag1       1.0  0.27317  0.03956  0.03956  1.0000
  Ag  Ag2       1.0  0.03956  0.03956  0.27317  1.0000
  Ag  Ag3       1.0  0.03956  0.27317  0.03956  1.0000
  Pd  Pd1       1.0  0.32125  0.71922  0.71922  1.0000
  Pd  Pd2       1.0  0.71922  0.71922  0.32125  1.0000
  Pd  Pd3       1.0  0.71922  0.32125  0.71922  1.0000
