data_image0
_chemical_formula_structural       Au12Pd12
_chemical_formula_sum              "Au12 Pd12"
_cell_length_a       4.53684
_cell_length_b       8.37999
_cell_length_c       10.696
_cell_angle_alpha    90
_cell_angle_beta     90
_cell_angle_gamma    90

_space_group_name_H-M_alt    "P 1"
_space_group_IT_number       1

loop_
  _space_group_symop_operation_xyz
  'x, y, z'

loop_
  _atom_site_type_symbol
  _atom_site_label
  _atom_site_symmetry_multiplicity
  _atom_site_fract_x
  _atom_site_fract_y
  _atom_site_fract_z
  _atom_site_occupancy
  Au  Au1       1.0  0.25000  0.66909  0.82316  1.0000
  Au  Au2       1.0  0.25000  0.83091  0.32316  1.0000
  Au  Au3       1.0  0.75000  0.33091  0.17684  1.0000
  Au  Au4       1.0  0.75000  0.16909  0.67684  1.0000
  Au  Au5       1.0  0.25000  0.33593  0.83281  1.0000
  Au  Au6       1.0  0.25000  0.16407  0.33281  1.0000
  Au  Au7       1.0  0.75000  0.66407  0.16719  1.0000
  Au  Au8       1.0  0.75000  0.83593  0.66719  1.0000
  Au  Au9       1.0  0.25000  0.00429  0.82838  1.0000
  Au  Au10      1.0  0.25000  0.49571  0.32838  1.0000
  Au  Au11      1.0  0.75000  0.99571  0.17162  1.0000
  Au  Au12      1.0  0.75000  0.50429  0.67162  1.0000
  Pd  Pd1       1.0  0.25000  0.33789  0.57508  1.0000
  Pd  Pd2       1.0  0.25000  0.16211  0.07508  1.0000
  Pd  Pd3       1.0  0.75000  0.66211  0.42492  1.0000
  Pd  Pd4       1.0  0.75000  0.83789  0.92492  1.0000
  Pd  Pd5       1.0  0.25000  0.67126  0.56465  1.0000
  Pd  Pd6       1.0  0.25000  0.82874  0.06465  1.0000
  Pd  Pd7       1.0  0.75000  0.32874  0.43535  1.0000
  Pd  Pd8       1.0  0.75000  0.17126  0.93535  1.0000
  Pd  Pd9       1.0  0.25000  0.00439  0.57033  1.0000
  Pd  Pd10      1.0  0.25000  0.49561  0.07033  1.0000
  Pd  Pd11      1.0  0.75000  0.99561  0.42967  1.0000
  Pd  Pd12      1.0  0.75000  0.50439  0.92967  1.0000
