data_image0
_chemical_formula_structural       Au13Pd2
_chemical_formula_sum              "Au13 Pd2"
_cell_length_a       6.98604
_cell_length_b       6.98604
_cell_length_c       6.98604
_cell_angle_alpha    86.5006
_cell_angle_beta     86.5006
_cell_angle_gamma    86.5006

_space_group_name_H-M_alt    "P 1"
_space_group_IT_number       1

loop_
  _space_group_symop_operation_xyz
  'x, y, z'

loop_
  _atom_site_type_symbol
  _atom_site_label
  _atom_site_symmetry_multiplicity
  _atom_site_fract_x
  _atom_site_fract_y
  _atom_site_fract_z
  _atom_site_occupancy
  Au  Au1       1.0  0.50000  0.50000  0.50000  1.0000
  Au  Au2       1.0  0.32009  0.74430  0.74430  1.0000
  Au  Au3       1.0  0.74430  0.74430  0.32009  1.0000
  Au  Au4       1.0  0.74430  0.32009  0.74430  1.0000
  Au  Au5       1.0  0.25570  0.67991  0.25570  1.0000
  Au  Au6       1.0  0.67991  0.25570  0.25570  1.0000
  Au  Au7       1.0  0.25570  0.25570  0.67991  1.0000
  Au  Au8       1.0  0.30551  0.01179  0.01179  1.0000
  Au  Au9       1.0  0.01179  0.01179  0.30551  1.0000
  Au  Au10      1.0  0.01179  0.30551  0.01179  1.0000
  Au  Au11      1.0  0.98821  0.69449  0.98821  1.0000
  Au  Au12      1.0  0.69449  0.98821  0.98821  1.0000
  Au  Au13      1.0  0.98821  0.98821  0.69449  1.0000
  Pd  Pd1       1.0  0.71520  0.71520  0.71520  1.0000
  Pd  Pd2       1.0  0.28480  0.28480  0.28480  1.0000
