data_image0
_chemical_formula_structural       Pd16Ag24
_chemical_formula_sum              "Pd16 Ag24"
_cell_length_a       9.43831
_cell_length_b       9.43831
_cell_length_c       8.1342
_cell_angle_alpha    90
_cell_angle_beta     90
_cell_angle_gamma    96.4149

_space_group_name_H-M_alt    "P 1"
_space_group_IT_number       1

loop_
  _space_group_symop_operation_xyz
  'x, y, z'

loop_
  _atom_site_type_symbol
  _atom_site_label
  _atom_site_symmetry_multiplicity
  _atom_site_fract_x
  _atom_site_fract_y
  _atom_site_fract_z
  _atom_site_occupancy
  Pd  Pd1       1.0  0.59698  0.59698  0.25000  1.0000
  Pd  Pd2       1.0  0.40302  0.40302  0.75000  1.0000
  Pd  Pd3       1.0  0.84599  0.84599  0.75000  1.0000
  Pd  Pd4       1.0  0.15401  0.15401  0.25000  1.0000
  Pd  Pd5       1.0  0.49386  0.19536  0.45197  1.0000
  Pd  Pd6       1.0  0.50614  0.80464  0.95197  1.0000
  Pd  Pd7       1.0  0.80464  0.50614  0.95197  1.0000
  Pd  Pd8       1.0  0.19536  0.49386  0.45197  1.0000
  Pd  Pd9       1.0  0.49386  0.19536  0.04803  1.0000
  Pd  Pd10      1.0  0.50614  0.80464  0.54803  1.0000
  Pd  Pd11      1.0  0.80464  0.50614  0.54803  1.0000
  Pd  Pd12      1.0  0.19536  0.49386  0.04803  1.0000
  Pd  Pd13      1.0  0.17140  0.94161  0.75000  1.0000
  Pd  Pd14      1.0  0.82860  0.05839  0.25000  1.0000
  Pd  Pd15      1.0  0.05839  0.82860  0.25000  1.0000
  Pd  Pd16      1.0  0.94161  0.17140  0.75000  1.0000
  Ag  Ag1       1.0  0.00000  0.00000  0.50000  1.0000
  Ag  Ag2       1.0  0.00000  0.00000  0.00000  1.0000
  Ag  Ag3       1.0  0.21931  0.21931  0.57760  1.0000
  Ag  Ag4       1.0  0.78069  0.78069  0.07760  1.0000
  Ag  Ag5       1.0  0.21931  0.21931  0.92240  1.0000
  Ag  Ag6       1.0  0.78069  0.78069  0.42240  1.0000
  Ag  Ag7       1.0  0.37966  0.37966  0.25000  1.0000
  Ag  Ag8       1.0  0.62034  0.62034  0.75000  1.0000
  Ag  Ag9       1.0  0.66612  0.29812  0.75000  1.0000
  Ag  Ag10      1.0  0.33388  0.70188  0.25000  1.0000
  Ag  Ag11      1.0  0.70188  0.33388  0.25000  1.0000
  Ag  Ag12      1.0  0.29812  0.66612  0.75000  1.0000
  Ag  Ag13      1.0  0.44819  0.04788  0.75000  1.0000
  Ag  Ag14      1.0  0.55181  0.95212  0.25000  1.0000
  Ag  Ag15      1.0  0.95212  0.55181  0.25000  1.0000
  Ag  Ag16      1.0  0.04788  0.44819  0.75000  1.0000
  Ag  Ag17      1.0  0.29068  0.95194  0.43456  1.0000
  Ag  Ag18      1.0  0.70932  0.04806  0.93456  1.0000
  Ag  Ag19      1.0  0.04806  0.70932  0.93456  1.0000
  Ag  Ag20      1.0  0.95194  0.29068  0.43456  1.0000
  Ag  Ag21      1.0  0.29068  0.95194  0.06544  1.0000
  Ag  Ag22      1.0  0.70932  0.04806  0.56544  1.0000
  Ag  Ag23      1.0  0.04806  0.70932  0.56544  1.0000
  Ag  Ag24      1.0  0.95194  0.29068  0.06544  1.0000
