data_image0
_chemical_formula_structural       Pd8Au14
_chemical_formula_sum              "Pd8 Au14"
_cell_length_a       11.9507
_cell_length_b       11.9507
_cell_length_c       11.9507
_cell_angle_alpha    34.332
_cell_angle_beta     34.332
_cell_angle_gamma    34.332

_space_group_name_H-M_alt    "P 1"
_space_group_IT_number       1

loop_
  _space_group_symop_operation_xyz
  'x, y, z'

loop_
  _atom_site_type_symbol
  _atom_site_label
  _atom_site_symmetry_multiplicity
  _atom_site_fract_x
  _atom_site_fract_y
  _atom_site_fract_z
  _atom_site_occupancy
  Pd  Pd1       1.0  0.14058  0.14058  0.14058  1.0000
  Pd  Pd2       1.0  0.72834  0.72834  0.72834  1.0000
  Pd  Pd3       1.0  0.42244  0.42244  0.42244  1.0000
  Pd  Pd4       1.0  0.50000  0.50000  0.50000  1.0000
  Pd  Pd5       1.0  0.57756  0.57756  0.57756  1.0000
  Pd  Pd6       1.0  0.27166  0.27166  0.27166  1.0000
  Pd  Pd7       1.0  0.00000  0.00000  0.00000  1.0000
  Pd  Pd8       1.0  0.85942  0.85942  0.85942  1.0000
  Au  Au1       1.0  0.07333  0.65692  0.65692  1.0000
  Au  Au2       1.0  0.05671  0.67517  0.05671  1.0000
  Au  Au3       1.0  0.05671  0.05671  0.67517  1.0000
  Au  Au4       1.0  0.34308  0.34308  0.92667  1.0000
  Au  Au5       1.0  0.32483  0.94329  0.94329  1.0000
  Au  Au6       1.0  0.65692  0.07333  0.65692  1.0000
  Au  Au7       1.0  0.65692  0.65692  0.07333  1.0000
  Au  Au8       1.0  0.94329  0.32483  0.94329  1.0000
  Au  Au9       1.0  0.65296  0.65296  0.65296  1.0000
  Au  Au10      1.0  0.67517  0.05671  0.05671  1.0000
  Au  Au11      1.0  0.94329  0.94329  0.32483  1.0000
  Au  Au12      1.0  0.92667  0.34308  0.34308  1.0000
  Au  Au13      1.0  0.34704  0.34704  0.34704  1.0000
  Au  Au14      1.0  0.34308  0.92667  0.34308  1.0000
