data_image0
_chemical_formula_structural       PdAu2
_chemical_formula_sum              "Pd1 Au2"
_cell_length_a       2.64494
_cell_length_b       2.64438
_cell_length_c       26.9764
_cell_angle_alpha    87.9612
_cell_angle_beta     88.2564
_cell_angle_gamma    88.2099

_space_group_name_H-M_alt    "P 1"
_space_group_IT_number       1

loop_
  _space_group_symop_operation_xyz
  'x, y, z'

loop_
  _atom_site_type_symbol
  _atom_site_label
  _atom_site_symmetry_multiplicity
  _atom_site_fract_x
  _atom_site_fract_y
  _atom_site_fract_z
  _atom_site_occupancy
  Pd  Pd1       1.0  0.50820  0.48795  0.49615  1.0000
  Au  Au1       1.0  0.93218  0.44623  0.19092  1.0000
  Au  Au2       1.0  0.07684  0.58813  0.81069  1.0000
