data_image0
_chemical_formula_structural       Pd6C18
_chemical_formula_sum              "Pd6 C18"
_cell_length_a       7.8637
_cell_length_b       7.8637
_cell_length_c       7.06604
_cell_angle_alpha    90
_cell_angle_beta     90
_cell_angle_gamma    122.29

_space_group_name_H-M_alt    "P 1"
_space_group_IT_number       1

loop_
  _space_group_symop_operation_xyz
  'x, y, z'

loop_
  _atom_site_type_symbol
  _atom_site_label
  _atom_site_symmetry_multiplicity
  _atom_site_fract_x
  _atom_site_fract_y
  _atom_site_fract_z
  _atom_site_occupancy
  Pd  Pd1       1.0  0.50000  0.50000  0.00000  1.0000
  Pd  Pd2       1.0  0.00000  0.50000  0.00000  1.0000
  Pd  Pd3       1.0  0.50000  0.50000  0.50000  1.0000
  Pd  Pd4       1.0  0.50000  0.00000  0.50000  1.0000
  Pd  Pd5       1.0  0.50000  0.00000  0.00000  1.0000
  Pd  Pd6       1.0  0.00000  0.50000  0.50000  1.0000
  C   C1        1.0  0.44541  0.00349  0.75000  1.0000
  C   C2        1.0  0.45218  0.54782  0.25000  1.0000
  C   C3        1.0  0.20147  0.41246  0.91908  1.0000
  C   C4        1.0  0.58754  0.79853  0.91908  1.0000
  C   C5        1.0  0.00349  0.44541  0.25000  1.0000
  C   C6        1.0  0.99651  0.55459  0.75000  1.0000
  C   C7        1.0  0.41246  0.20147  0.08092  1.0000
  C   C8        1.0  0.58754  0.79853  0.58092  1.0000
  C   C9        1.0  0.79853  0.58754  0.41908  1.0000
  C   C10       1.0  0.79627  0.20373  0.62337  1.0000
  C   C11       1.0  0.55459  0.99651  0.25000  1.0000
  C   C12       1.0  0.79627  0.20373  0.87663  1.0000
  C   C13       1.0  0.20373  0.79627  0.12337  1.0000
  C   C14       1.0  0.79853  0.58754  0.08092  1.0000
  C   C15       1.0  0.20373  0.79627  0.37663  1.0000
  C   C16       1.0  0.41246  0.20147  0.41908  1.0000
  C   C17       1.0  0.54782  0.45218  0.75000  1.0000
  C   C18       1.0  0.20147  0.41246  0.58092  1.0000
