data_image0
_chemical_formula_structural       Au5Pd5
_chemical_formula_sum              "Au5 Pd5"
_cell_length_a       7.65039
_cell_length_b       7.65039
_cell_length_c       4.78217
_cell_angle_alpha    90
_cell_angle_beta     90
_cell_angle_gamma    142.96

_space_group_name_H-M_alt    "P 1"
_space_group_IT_number       1

loop_
  _space_group_symop_operation_xyz
  'x, y, z'

loop_
  _atom_site_type_symbol
  _atom_site_label
  _atom_site_symmetry_multiplicity
  _atom_site_fract_x
  _atom_site_fract_y
  _atom_site_fract_z
  _atom_site_occupancy
  Au  Au1       1.0  0.04495  0.43845  0.00000  1.0000
  Au  Au2       1.0  0.02255  0.62532  0.50000  1.0000
  Au  Au3       1.0  0.83214  0.83214  0.50000  1.0000
  Au  Au4       1.0  0.43845  0.04495  0.00000  1.0000
  Au  Au5       1.0  0.62532  0.02255  0.50000  1.0000
  Pd  Pd1       1.0  0.23125  0.42696  0.50000  1.0000
  Pd  Pd2       1.0  0.83519  0.63928  0.00000  1.0000
  Pd  Pd3       1.0  0.63928  0.83519  0.00000  1.0000
  Pd  Pd4       1.0  0.23725  0.23725  0.00000  1.0000
  Pd  Pd5       1.0  0.42696  0.23125  0.50000  1.0000
