data_image0
_chemical_formula_structural       Pd2C12
_chemical_formula_sum              "Pd2 C12"
_cell_length_a       3.65163
_cell_length_b       3.65163
_cell_length_c       12.6162
_cell_angle_alpha    90
_cell_angle_beta     90
_cell_angle_gamma    139.646

_space_group_name_H-M_alt    "P 1"
_space_group_IT_number       1

loop_
  _space_group_symop_operation_xyz
  'x, y, z'

loop_
  _atom_site_type_symbol
  _atom_site_label
  _atom_site_symmetry_multiplicity
  _atom_site_fract_x
  _atom_site_fract_y
  _atom_site_fract_z
  _atom_site_occupancy
  Pd  Pd1       1.0  0.25837  0.74163  0.25000  1.0000
  Pd  Pd2       1.0  0.74163  0.25837  0.75000  1.0000
  C   C1        1.0  0.94551  0.05449  0.09769  1.0000
  C   C2        1.0  0.05449  0.94551  0.90231  1.0000
  C   C3        1.0  0.74969  0.25031  0.46287  1.0000
  C   C4        1.0  0.25031  0.74969  0.53713  1.0000
  C   C5        1.0  0.25031  0.74969  0.96287  1.0000
  C   C6        1.0  0.74969  0.25031  0.03713  1.0000
  C   C7        1.0  0.44653  0.55347  0.59696  1.0000
  C   C8        1.0  0.55347  0.44653  0.40304  1.0000
  C   C9        1.0  0.55347  0.44653  0.09696  1.0000
  C   C10       1.0  0.44653  0.55347  0.90304  1.0000
  C   C11       1.0  0.94551  0.05449  0.40231  1.0000
  C   C12       1.0  0.05449  0.94551  0.59769  1.0000
