data_image0
_chemical_formula_structural       Pd2C6
_chemical_formula_sum              "Pd2 C6"
_cell_length_a       4.61293
_cell_length_b       3.8999
_cell_length_c       6.33909
_cell_angle_alpha    90
_cell_angle_beta     90
_cell_angle_gamma    103.668

_space_group_name_H-M_alt    "P 1"
_space_group_IT_number       1

loop_
  _space_group_symop_operation_xyz
  'x, y, z'

loop_
  _atom_site_type_symbol
  _atom_site_label
  _atom_site_symmetry_multiplicity
  _atom_site_fract_x
  _atom_site_fract_y
  _atom_site_fract_z
  _atom_site_occupancy
  Pd  Pd1       1.0  0.44908  0.91403  0.75000  1.0000
  Pd  Pd2       1.0  0.60663  0.37557  0.25000  1.0000
  C   C1        1.0  0.91756  0.13267  0.25000  1.0000
  C   C2        1.0  0.93524  0.78961  0.25000  1.0000
  C   C3        1.0  0.19998  0.05069  0.25000  1.0000
  C   C4        1.0  0.00202  0.58336  0.75000  1.0000
  C   C5        1.0  0.98847  0.92495  0.75000  1.0000
  C   C6        1.0  0.90103  0.22913  0.75000  1.0000
