data_image0
_chemical_formula_structural       Au24Pd24
_chemical_formula_sum              "Au24 Pd24"
_cell_length_a       10.7944
_cell_length_b       10.7944
_cell_length_c       8.26349
_cell_angle_alpha    90
_cell_angle_beta     90
_cell_angle_gamma    90

_space_group_name_H-M_alt    "P 1"
_space_group_IT_number       1

loop_
  _space_group_symop_operation_xyz
  'x, y, z'

loop_
  _atom_site_type_symbol
  _atom_site_label
  _atom_site_symmetry_multiplicity
  _atom_site_fract_x
  _atom_site_fract_y
  _atom_site_fract_z
  _atom_site_occupancy
  Au  Au1       1.0  0.21246  0.26458  0.50000  1.0000
  Au  Au2       1.0  0.76458  0.71246  0.00000  1.0000
  Au  Au3       1.0  0.03214  0.76625  0.50000  1.0000
  Au  Au4       1.0  0.73542  0.21246  0.00000  1.0000
  Au  Au5       1.0  0.26625  0.53214  0.00000  1.0000
  Au  Au6       1.0  0.26458  0.78754  0.00000  1.0000
  Au  Au7       1.0  0.96786  0.23375  0.50000  1.0000
  Au  Au8       1.0  0.73375  0.46786  0.00000  1.0000
  Au  Au9       1.0  0.53214  0.73375  0.50000  1.0000
  Au  Au10      1.0  0.40950  0.90950  0.75000  1.0000
  Au  Au11      1.0  0.90950  0.59050  0.25000  1.0000
  Au  Au12      1.0  0.09050  0.40950  0.25000  1.0000
  Au  Au13      1.0  0.71246  0.23542  0.50000  1.0000
  Au  Au14      1.0  0.59050  0.09050  0.75000  1.0000
  Au  Au15      1.0  0.28754  0.76458  0.50000  1.0000
  Au  Au16      1.0  0.46786  0.26625  0.50000  1.0000
  Au  Au17      1.0  0.76625  0.96786  0.00000  1.0000
  Au  Au18      1.0  0.59050  0.09050  0.25000  1.0000
  Au  Au19      1.0  0.40950  0.90950  0.25000  1.0000
  Au  Au20      1.0  0.90950  0.59050  0.75000  1.0000
  Au  Au21      1.0  0.09050  0.40950  0.75000  1.0000
  Au  Au22      1.0  0.78754  0.73542  0.50000  1.0000
  Au  Au23      1.0  0.23542  0.28754  0.00000  1.0000
  Au  Au24      1.0  0.23375  0.03214  0.00000  1.0000
  Pd  Pd1       1.0  0.15401  0.91887  0.27955  1.0000
  Pd  Pd2       1.0  0.15601  0.65601  0.25000  1.0000
  Pd  Pd3       1.0  0.34399  0.15601  0.25000  1.0000
  Pd  Pd4       1.0  0.91887  0.84599  0.77955  1.0000
  Pd  Pd5       1.0  0.58113  0.34599  0.77955  1.0000
  Pd  Pd6       1.0  0.65401  0.58113  0.72045  1.0000
  Pd  Pd7       1.0  0.84599  0.08113  0.27955  1.0000
  Pd  Pd8       1.0  0.65601  0.84399  0.75000  1.0000
  Pd  Pd9       1.0  0.84399  0.34399  0.25000  1.0000
  Pd  Pd10      1.0  0.08113  0.15401  0.22045  1.0000
  Pd  Pd11      1.0  0.34599  0.41887  0.27955  1.0000
  Pd  Pd12      1.0  0.34599  0.41887  0.72045  1.0000
  Pd  Pd13      1.0  0.41887  0.65401  0.22045  1.0000
  Pd  Pd14      1.0  0.91887  0.84599  0.22045  1.0000
  Pd  Pd15      1.0  0.84399  0.34399  0.75000  1.0000
  Pd  Pd16      1.0  0.41887  0.65401  0.77955  1.0000
  Pd  Pd17      1.0  0.58113  0.34599  0.22045  1.0000
  Pd  Pd18      1.0  0.15401  0.91887  0.72045  1.0000
  Pd  Pd19      1.0  0.34399  0.15601  0.75000  1.0000
  Pd  Pd20      1.0  0.65401  0.58113  0.27955  1.0000
  Pd  Pd21      1.0  0.15601  0.65601  0.75000  1.0000
  Pd  Pd22      1.0  0.08113  0.15401  0.77955  1.0000
  Pd  Pd23      1.0  0.65601  0.84399  0.25000  1.0000
  Pd  Pd24      1.0  0.84599  0.08113  0.72045  1.0000
