data_image0
_chemical_formula_structural       Pd4Au6
_chemical_formula_sum              "Pd4 Au6"
_cell_length_a       8.48874
_cell_length_b       7.50085
_cell_length_c       5.49346
_cell_angle_alpha    79.9495
_cell_angle_beta     60.4659
_cell_angle_gamma    39.5845

_space_group_name_H-M_alt    "P 1"
_space_group_IT_number       1

loop_
  _space_group_symop_operation_xyz
  'x, y, z'

loop_
  _atom_site_type_symbol
  _atom_site_label
  _atom_site_symmetry_multiplicity
  _atom_site_fract_x
  _atom_site_fract_y
  _atom_site_fract_z
  _atom_site_occupancy
  Pd  Pd1       1.0  0.40553  0.40553  0.59447  1.0000
  Pd  Pd2       1.0  0.59447  0.59447  0.40553  1.0000
  Pd  Pd3       1.0  0.94544  0.94544  0.55456  1.0000
  Pd  Pd4       1.0  0.55456  0.55456  0.94544  1.0000
  Au  Au1       1.0  0.61072  0.88928  0.61072  1.0000
  Au  Au2       1.0  0.88928  0.61072  0.88928  1.0000
  Au  Au3       1.0  0.09591  0.09591  0.90409  1.0000
  Au  Au4       1.0  0.90409  0.90409  0.09591  1.0000
  Au  Au5       1.0  0.14601  0.14601  0.35399  1.0000
  Au  Au6       1.0  0.35399  0.35399  0.14601  1.0000
