data_image0
_chemical_formula_structural       Pd2C6
_chemical_formula_sum              "Pd2 C6"
_cell_length_a       5.03223
_cell_length_b       5.013
_cell_length_c       5.02236
_cell_angle_alpha    94.4954
_cell_angle_beta     85.2348
_cell_angle_gamma    94.5554

_space_group_name_H-M_alt    "P 1"
_space_group_IT_number       1

loop_
  _space_group_symop_operation_xyz
  'x, y, z'

loop_
  _atom_site_type_symbol
  _atom_site_label
  _atom_site_symmetry_multiplicity
  _atom_site_fract_x
  _atom_site_fract_y
  _atom_site_fract_z
  _atom_site_occupancy
  Pd  Pd1       1.0  0.50085  0.49969  0.50016  1.0000
  Pd  Pd2       1.0  0.99893  0.00049  0.99992  1.0000
  C   C1        1.0  0.24998  0.24994  0.75055  1.0000
  C   C2        1.0  0.74975  0.75028  0.25025  1.0000
  C   C3        1.0  0.74967  0.74960  0.74910  1.0000
  C   C4        1.0  0.25106  0.25042  0.25045  1.0000
  C   C5        1.0  0.74984  0.24986  0.24988  1.0000
  C   C6        1.0  0.24992  0.74971  0.74970  1.0000
