data_image0
_chemical_formula_structural       Au21Pd6
_chemical_formula_sum              "Au21 Pd6"
_cell_length_a       8.50762
_cell_length_b       8.50762
_cell_length_c       8.50762
_cell_angle_alpha    109.471
_cell_angle_beta     109.471
_cell_angle_gamma    109.471

_space_group_name_H-M_alt    "P 1"
_space_group_IT_number       1

loop_
  _space_group_symop_operation_xyz
  'x, y, z'

loop_
  _atom_site_type_symbol
  _atom_site_label
  _atom_site_symmetry_multiplicity
  _atom_site_fract_x
  _atom_site_fract_y
  _atom_site_fract_z
  _atom_site_occupancy
  Au  Au1       1.0  0.33349  0.66651  0.00000  1.0000
  Au  Au2       1.0  0.33349  0.33349  0.66699  1.0000
  Au  Au3       1.0  0.66883  0.66883  0.66883  1.0000
  Au  Au4       1.0  0.66651  0.33349  0.00000  1.0000
  Au  Au5       1.0  0.00000  0.66883  0.00000  1.0000
  Au  Au6       1.0  0.33349  0.66699  0.33349  1.0000
  Au  Au7       1.0  0.00000  0.00000  0.33117  1.0000
  Au  Au8       1.0  0.00000  0.33349  0.66651  1.0000
  Au  Au9       1.0  0.00000  1.00000  0.66883  1.0000
  Au  Au10      1.0  1.00000  0.66651  0.33349  1.0000
  Au  Au11      1.0  0.00000  0.33117  0.00000  1.0000
  Au  Au12      1.0  0.66651  0.33301  0.66651  1.0000
  Au  Au13      1.0  0.66651  0.00000  0.33349  1.0000
  Au  Au14      1.0  0.33117  0.00000  0.00000  1.0000
  Au  Au15      1.0  0.66883  0.00000  0.00000  1.0000
  Au  Au16      1.0  0.00000  0.00000  0.00000  1.0000
  Au  Au17      1.0  0.33349  0.00000  0.66651  1.0000
  Au  Au18      1.0  0.66651  0.66651  0.33301  1.0000
  Au  Au19      1.0  0.33301  0.66651  0.66651  1.0000
  Au  Au20      1.0  0.66699  0.33349  0.33349  1.0000
  Au  Au21      1.0  0.33117  0.33117  0.33117  1.0000
  Pd  Pd1       1.0  0.66482  0.66482  0.00000  1.0000
  Pd  Pd2       1.0  0.33518  0.33518  0.00000  1.0000
  Pd  Pd3       1.0  0.00000  0.33518  0.33518  1.0000
  Pd  Pd4       1.0  0.33518  0.00000  0.33518  1.0000
  Pd  Pd5       1.0  0.00000  0.66482  0.66482  1.0000
  Pd  Pd6       1.0  0.66482  0.00000  0.66482  1.0000
