data_image0
_chemical_formula_structural       C4Pd4
_chemical_formula_sum              "C4 Pd4"
_cell_length_a       5.39716
_cell_length_b       5.39716
_cell_length_c       5.39716
_cell_angle_alpha    113.991
_cell_angle_beta     113.991
_cell_angle_gamma    100.768

_space_group_name_H-M_alt    "P 1"
_space_group_IT_number       1

loop_
  _space_group_symop_operation_xyz
  'x, y, z'

loop_
  _atom_site_type_symbol
  _atom_site_label
  _atom_site_symmetry_multiplicity
  _atom_site_fract_x
  _atom_site_fract_y
  _atom_site_fract_z
  _atom_site_occupancy
  C   C1        1.0  0.87500  0.62500  0.75000  1.0000
  C   C2        1.0  0.37500  0.12500  0.25000  1.0000
  C   C3        1.0  0.87500  0.12500  0.75000  1.0000
  C   C4        1.0  0.87500  0.12500  0.25000  1.0000
  Pd  Pd1       1.0  0.70276  0.70276  0.00000  1.0000
  Pd  Pd2       1.0  0.45276  0.95276  0.50000  1.0000
  Pd  Pd3       1.0  0.04724  0.54724  0.50000  1.0000
  Pd  Pd4       1.0  0.29724  0.29724  0.00000  1.0000
