data_image0
_chemical_formula_structural       Pd2C6
_chemical_formula_sum              "Pd2 C6"
_cell_length_a       4.26198
_cell_length_b       4.26198
_cell_length_c       6.78193
_cell_angle_alpha    80.2017
_cell_angle_beta     80.2017
_cell_angle_gamma    95.2322

_space_group_name_H-M_alt    "P 1"
_space_group_IT_number       1

loop_
  _space_group_symop_operation_xyz
  'x, y, z'

loop_
  _atom_site_type_symbol
  _atom_site_label
  _atom_site_symmetry_multiplicity
  _atom_site_fract_x
  _atom_site_fract_y
  _atom_site_fract_z
  _atom_site_occupancy
  Pd  Pd1       1.0  0.00000  0.00000  0.50000  1.0000
  Pd  Pd2       1.0  0.00000  0.00000  0.00000  1.0000
  C   C1        1.0  0.10469  0.53270  0.91159  1.0000
  C   C2        1.0  0.76488  0.23512  0.25000  1.0000
  C   C3        1.0  0.46730  0.89531  0.58841  1.0000
  C   C4        1.0  0.89531  0.46730  0.08841  1.0000
  C   C5        1.0  0.23512  0.76488  0.75000  1.0000
  C   C6        1.0  0.53270  0.10469  0.41159  1.0000
