data_image0
_chemical_formula_structural       Pd4C24
_chemical_formula_sum              "Pd4 C24"
_cell_length_a       7.66856
_cell_length_b       7.51795
_cell_length_c       9.1916
_cell_angle_alpha    90
_cell_angle_beta     90
_cell_angle_gamma    90

_space_group_name_H-M_alt    "P 1"
_space_group_IT_number       1

loop_
  _space_group_symop_operation_xyz
  'x, y, z'

loop_
  _atom_site_type_symbol
  _atom_site_label
  _atom_site_symmetry_multiplicity
  _atom_site_fract_x
  _atom_site_fract_y
  _atom_site_fract_z
  _atom_site_occupancy
  Pd  Pd1       1.0  0.21701  0.97906  0.53193  1.0000
  Pd  Pd2       1.0  0.78299  0.47906  0.46807  1.0000
  Pd  Pd3       1.0  0.21701  0.47906  0.96807  1.0000
  Pd  Pd4       1.0  0.78299  0.97906  0.03193  1.0000
  C   C1        1.0  0.10526  0.98710  0.74143  1.0000
  C   C2        1.0  0.89474  0.48710  0.25857  1.0000
  C   C3        1.0  0.10526  0.48710  0.75857  1.0000
  C   C4        1.0  0.89474  0.98710  0.24143  1.0000
  C   C5        1.0  0.94154  0.99486  0.78255  1.0000
  C   C6        1.0  0.05846  0.49486  0.21745  1.0000
  C   C7        1.0  0.94154  0.49486  0.71745  1.0000
  C   C8        1.0  0.05846  0.99486  0.28255  1.0000
  C   C9        1.0  0.77551  0.99488  0.80540  1.0000
  C   C10       1.0  0.22449  0.49488  0.19460  1.0000
  C   C11       1.0  0.77551  0.49488  0.69460  1.0000
  C   C12       1.0  0.22449  0.99488  0.30540  1.0000
  C   C13       1.0  0.39530  0.97949  0.31104  1.0000
  C   C14       1.0  0.60470  0.47949  0.68896  1.0000
  C   C15       1.0  0.39530  0.47949  0.18896  1.0000
  C   C16       1.0  0.60470  0.97949  0.81104  1.0000
  C   C17       1.0  0.55938  0.97794  0.28949  1.0000
  C   C18       1.0  0.44062  0.47794  0.71051  1.0000
  C   C19       1.0  0.55938  0.47794  0.21051  1.0000
  C   C20       1.0  0.44062  0.97794  0.78949  1.0000
  C   C21       1.0  0.72468  0.97648  0.25626  1.0000
  C   C22       1.0  0.27532  0.47648  0.74374  1.0000
  C   C23       1.0  0.72468  0.47648  0.24374  1.0000
  C   C24       1.0  0.27532  0.97648  0.75626  1.0000
