data_image0
_chemical_formula_structural       C12Pd4
_chemical_formula_sum              "C12 Pd4"
_cell_length_a       4.06165
_cell_length_b       5.97459
_cell_length_c       6.79816
_cell_angle_alpha    90
_cell_angle_beta     90
_cell_angle_gamma    90

_space_group_name_H-M_alt    "P 1"
_space_group_IT_number       1

loop_
  _space_group_symop_operation_xyz
  'x, y, z'

loop_
  _atom_site_type_symbol
  _atom_site_label
  _atom_site_symmetry_multiplicity
  _atom_site_fract_x
  _atom_site_fract_y
  _atom_site_fract_z
  _atom_site_occupancy
  C   C1        1.0  0.38961  0.17409  0.35169  1.0000
  C   C2        1.0  0.11039  0.67409  0.14831  1.0000
  C   C3        1.0  0.88961  0.32591  0.85169  1.0000
  C   C4        1.0  0.17604  0.42216  0.75000  1.0000
  C   C5        1.0  0.11039  0.67409  0.35169  1.0000
  C   C6        1.0  0.38961  0.17409  0.14831  1.0000
  C   C7        1.0  0.32396  0.92216  0.75000  1.0000
  C   C8        1.0  0.61039  0.82591  0.85169  1.0000
  C   C9        1.0  0.88961  0.32591  0.64831  1.0000
  C   C10       1.0  0.82396  0.57784  0.25000  1.0000
  C   C11       1.0  0.61039  0.82591  0.64831  1.0000
  C   C12       1.0  0.67604  0.07784  0.25000  1.0000
  Pd  Pd1       1.0  0.00000  0.00000  0.50000  1.0000
  Pd  Pd2       1.0  0.50000  0.50000  0.50000  1.0000
  Pd  Pd3       1.0  0.50000  0.50000  0.00000  1.0000
  Pd  Pd4       1.0  0.00000  0.00000  0.00000  1.0000
