data_image0
_chemical_formula_structural       Pd2Au6
_chemical_formula_sum              "Pd2 Au6"
_cell_length_a       5.26369
_cell_length_b       5.26369
_cell_length_c       5.26369
_cell_angle_alpha    93.117
_cell_angle_beta     93.117
_cell_angle_gamma    93.117

_space_group_name_H-M_alt    "P 1"
_space_group_IT_number       1

loop_
  _space_group_symop_operation_xyz
  'x, y, z'

loop_
  _atom_site_type_symbol
  _atom_site_label
  _atom_site_symmetry_multiplicity
  _atom_site_fract_x
  _atom_site_fract_y
  _atom_site_fract_z
  _atom_site_occupancy
  Pd  Pd1       1.0  0.83421  0.83421  0.83421  1.0000
  Pd  Pd2       1.0  0.16579  0.16579  0.16579  1.0000
  Au  Au1       1.0  0.86934  0.32139  0.64223  1.0000
  Au  Au2       1.0  0.64223  0.86934  0.32139  1.0000
  Au  Au3       1.0  0.32139  0.64223  0.86934  1.0000
  Au  Au4       1.0  0.67861  0.35777  0.13066  1.0000
  Au  Au5       1.0  0.35777  0.13066  0.67861  1.0000
  Au  Au6       1.0  0.13066  0.67861  0.35777  1.0000
