data_image0
_chemical_formula_structural       C3Pd
_chemical_formula_sum              "C3 Pd1"
_cell_length_a       3.71189
_cell_length_b       3.71189
_cell_length_c       4.41476
_cell_angle_alpha    84.2642
_cell_angle_beta     84.2642
_cell_angle_gamma    139.676

_space_group_name_H-M_alt    "P 1"
_space_group_IT_number       1

loop_
  _space_group_symop_operation_xyz
  'x, y, z'

loop_
  _atom_site_type_symbol
  _atom_site_label
  _atom_site_symmetry_multiplicity
  _atom_site_fract_x
  _atom_site_fract_y
  _atom_site_fract_z
  _atom_site_occupancy
  C   C1        1.0  0.90621  0.51515  0.28041  1.0000
  C   C2        1.0  0.51515  0.90621  0.28041  1.0000
  C   C3        1.0  0.64010  0.64010  0.42206  1.0000
  Pd  Pd1       1.0  0.93852  0.93852  0.82592  1.0000
