data_image0
_chemical_formula_structural       Au5Pd3
_chemical_formula_sum              "Au5 Pd3"
_cell_length_a       5.64696
_cell_length_b       5.64696
_cell_length_c       5.64696
_cell_angle_alpha    109.663
_cell_angle_beta     109.663
_cell_angle_gamma    109.663

_space_group_name_H-M_alt    "P 1"
_space_group_IT_number       1

loop_
  _space_group_symop_operation_xyz
  'x, y, z'

loop_
  _atom_site_type_symbol
  _atom_site_label
  _atom_site_symmetry_multiplicity
  _atom_site_fract_x
  _atom_site_fract_y
  _atom_site_fract_z
  _atom_site_occupancy
  Au  Au1       1.0  0.46495  0.46495  0.46495  1.0000
  Au  Au2       1.0  0.53716  0.99992  0.49719  1.0000
  Au  Au3       1.0  0.99992  0.49719  0.53716  1.0000
  Au  Au4       1.0  0.49719  0.53716  0.99992  1.0000
  Au  Au5       1.0  0.96868  0.96868  0.96868  1.0000
  Pd  Pd1       1.0  0.03884  0.99305  0.50021  1.0000
  Pd  Pd2       1.0  0.99305  0.50021  0.03884  1.0000
  Pd  Pd3       1.0  0.50021  0.03884  0.99305  1.0000
