data_image0
_chemical_formula_structural       Pd4C8
_chemical_formula_sum              "Pd4 C8"
_cell_length_a       4.76257
_cell_length_b       3.8593
_cell_length_c       7.46476
_cell_angle_alpha    94.0144
_cell_angle_beta     90
_cell_angle_gamma    90

_space_group_name_H-M_alt    "P 1"
_space_group_IT_number       1

loop_
  _space_group_symop_operation_xyz
  'x, y, z'

loop_
  _atom_site_type_symbol
  _atom_site_label
  _atom_site_symmetry_multiplicity
  _atom_site_fract_x
  _atom_site_fract_y
  _atom_site_fract_z
  _atom_site_occupancy
  Pd  Pd1       1.0  0.50000  0.04882  0.31778  1.0000
  Pd  Pd2       1.0  0.50000  0.57794  0.57045  1.0000
  Pd  Pd3       1.0  0.00000  0.10963  0.59991  1.0000
  Pd  Pd4       1.0  0.00000  0.62897  0.28505  1.0000
  C   C1        1.0  0.00000  0.34529  0.86423  1.0000
  C   C2        1.0  0.64781  0.53128  0.11759  1.0000
  C   C3        1.0  0.35219  0.53128  0.11759  1.0000
  C   C4        1.0  0.50000  0.08869  0.66617  1.0000
  C   C5        1.0  0.25874  0.39871  0.93835  1.0000
  C   C6        1.0  0.74126  0.39871  0.93835  1.0000
  C   C7        1.0  0.00000  0.12671  0.33894  1.0000
  C   C8        1.0  0.50000  0.28606  0.82855  1.0000
