data_image0
_chemical_formula_structural       Pd15Au16
_chemical_formula_sum              "Pd15 Au16"
_cell_length_a       9.30381
_cell_length_b       9.30381
_cell_length_c       9.30381
_cell_angle_alpha    109.471
_cell_angle_beta     109.471
_cell_angle_gamma    109.471

_space_group_name_H-M_alt    "P 1"
_space_group_IT_number       1

loop_
  _space_group_symop_operation_xyz
  'x, y, z'

loop_
  _atom_site_type_symbol
  _atom_site_label
  _atom_site_symmetry_multiplicity
  _atom_site_fract_x
  _atom_site_fract_y
  _atom_site_fract_z
  _atom_site_occupancy
  Pd  Pd1       1.0  0.24992  0.75008  0.00000  1.0000
  Pd  Pd2       1.0  0.50000  0.50000  0.00000  1.0000
  Pd  Pd3       1.0  0.49985  0.24992  0.24992  1.0000
  Pd  Pd4       1.0  0.75008  0.00000  0.24992  1.0000
  Pd  Pd5       1.0  0.00000  0.75008  0.24992  1.0000
  Pd  Pd6       1.0  0.00000  0.50000  0.50000  1.0000
  Pd  Pd7       1.0  0.24992  0.49985  0.24992  1.0000
  Pd  Pd8       1.0  0.24992  0.24992  0.49985  1.0000
  Pd  Pd9       1.0  0.50000  0.00000  0.50000  1.0000
  Pd  Pd10      1.0  0.50015  0.75008  0.75008  1.0000
  Pd  Pd11      1.0  0.75008  0.75008  0.50015  1.0000
  Pd  Pd12      1.0  0.75008  0.50015  0.75008  1.0000
  Pd  Pd13      1.0  0.00000  0.24992  0.75008  1.0000
  Pd  Pd14      1.0  0.24992  0.00000  0.75008  1.0000
  Pd  Pd15      1.0  0.75008  0.24992  0.00000  1.0000
  Au  Au1       1.0  0.75334  0.75334  0.00000  1.0000
  Au  Au2       1.0  0.00000  0.50000  0.00000  1.0000
  Au  Au3       1.0  0.00000  0.24666  0.24666  1.0000
  Au  Au4       1.0  0.24666  0.24666  0.00000  1.0000
  Au  Au5       1.0  0.24666  0.00000  0.24666  1.0000
  Au  Au6       1.0  0.50000  0.75000  0.25000  1.0000
  Au  Au7       1.0  0.50000  0.50000  0.50000  1.0000
  Au  Au8       1.0  0.75000  0.50000  0.25000  1.0000
  Au  Au9       1.0  0.75000  0.25000  0.50000  1.0000
  Au  Au10      1.0  0.00000  0.00000  0.50000  1.0000
  Au  Au11      1.0  0.00000  0.75334  0.75334  1.0000
  Au  Au12      1.0  0.25000  0.75000  0.50000  1.0000
  Au  Au13      1.0  0.25000  0.50000  0.75000  1.0000
  Au  Au14      1.0  0.50000  0.25000  0.75000  1.0000
  Au  Au15      1.0  0.50000  0.00000  0.00000  1.0000
  Au  Au16      1.0  0.75334  0.00000  0.75334  1.0000
