data_image0
_chemical_formula_structural       Pd2Au6
_chemical_formula_sum              "Pd2 Au6"
_cell_length_a       4.9818
_cell_length_b       4.9818
_cell_length_c       7.16507
_cell_angle_alpha    83.9951
_cell_angle_beta     83.9951
_cell_angle_gamma    119.739

_space_group_name_H-M_alt    "P 1"
_space_group_IT_number       1

loop_
  _space_group_symop_operation_xyz
  'x, y, z'

loop_
  _atom_site_type_symbol
  _atom_site_label
  _atom_site_symmetry_multiplicity
  _atom_site_fract_x
  _atom_site_fract_y
  _atom_site_fract_z
  _atom_site_occupancy
  Pd  Pd1       1.0  0.82893  0.17107  0.00000  1.0000
  Pd  Pd2       1.0  0.17107  0.82893  0.00000  1.0000
  Au  Au1       1.0  0.38911  0.05884  0.32475  1.0000
  Au  Au2       1.0  0.61089  0.94116  0.67525  1.0000
  Au  Au3       1.0  0.94116  0.61089  0.67525  1.0000
  Au  Au4       1.0  0.05884  0.38911  0.32475  1.0000
  Au  Au5       1.0  0.71993  0.71993  0.31137  1.0000
  Au  Au6       1.0  0.28007  0.28007  0.68863  1.0000
