data_image0
_chemical_formula_structural       Pd6Au24
_chemical_formula_sum              "Pd6 Au24"
_cell_length_a       9.69629
_cell_length_b       9.69629
_cell_length_c       9.75657
_cell_angle_alpha    57.6264
_cell_angle_beta     57.6264
_cell_angle_gamma    87.1477

_space_group_name_H-M_alt    "P 1"
_space_group_IT_number       1

loop_
  _space_group_symop_operation_xyz
  'x, y, z'

loop_
  _atom_site_type_symbol
  _atom_site_label
  _atom_site_symmetry_multiplicity
  _atom_site_fract_x
  _atom_site_fract_y
  _atom_site_fract_z
  _atom_site_occupancy
  Pd  Pd1       1.0  0.78021  0.21979  0.75000  1.0000
  Pd  Pd2       1.0  0.21979  0.78021  0.25000  1.0000
  Pd  Pd3       1.0  0.32918  0.42026  0.68900  1.0000
  Pd  Pd4       1.0  0.57974  0.67082  0.81100  1.0000
  Pd  Pd5       1.0  0.67082  0.57974  0.31100  1.0000
  Pd  Pd6       1.0  0.42026  0.32918  0.18900  1.0000
  Au  Au1       1.0  0.29074  0.19257  0.60325  1.0000
  Au  Au2       1.0  0.80743  0.70926  0.89675  1.0000
  Au  Au3       1.0  0.70926  0.80743  0.39675  1.0000
  Au  Au4       1.0  0.19257  0.29074  0.10325  1.0000
  Au  Au5       1.0  0.85884  0.35820  0.38766  1.0000
  Au  Au6       1.0  0.64180  0.14116  0.11234  1.0000
  Au  Au7       1.0  0.65333  0.34667  0.25000  1.0000
  Au  Au8       1.0  0.34667  0.65333  0.75000  1.0000
  Au  Au9       1.0  0.20192  0.51139  0.22023  1.0000
  Au  Au10      1.0  0.48861  0.79808  0.27977  1.0000
  Au  Au11      1.0  0.79808  0.48861  0.77977  1.0000
  Au  Au12      1.0  0.51139  0.20192  0.72023  1.0000
  Au  Au13      1.0  0.99197  0.72228  0.17778  1.0000
  Au  Au14      1.0  0.27772  0.00803  0.32222  1.0000
  Au  Au15      1.0  0.00803  0.27772  0.82222  1.0000
  Au  Au16      1.0  0.72228  0.99197  0.67778  1.0000
  Au  Au17      1.0  1.00000  0.50000  0.00000  1.0000
  Au  Au18      1.0  0.50000  0.00000  0.50000  1.0000
  Au  Au19      1.0  0.14078  0.05952  0.02839  1.0000
  Au  Au20      1.0  0.94048  0.85922  0.47161  1.0000
  Au  Au21      1.0  0.85922  0.94048  0.97161  1.0000
  Au  Au22      1.0  0.05952  0.14078  0.52839  1.0000
  Au  Au23      1.0  0.35820  0.85884  0.88766  1.0000
  Au  Au24      1.0  0.14116  0.64180  0.61234  1.0000
