data_image0
_chemical_formula_structural       Pd4C20
_chemical_formula_sum              "Pd4 C20"
_cell_length_a       8.97698
_cell_length_b       10.5934
_cell_length_c       10.8348
_cell_angle_alpha    94.6771
_cell_angle_beta     115.527
_cell_angle_gamma    88.2511

_space_group_name_H-M_alt    "P 1"
_space_group_IT_number       1

loop_
  _space_group_symop_operation_xyz
  'x, y, z'

loop_
  _atom_site_type_symbol
  _atom_site_label
  _atom_site_symmetry_multiplicity
  _atom_site_fract_x
  _atom_site_fract_y
  _atom_site_fract_z
  _atom_site_occupancy
  Pd  Pd1       1.0  0.60202  0.92770  0.08491  1.0000
  Pd  Pd2       1.0  0.39798  0.07230  0.91509  1.0000
  Pd  Pd3       1.0  0.49633  0.93330  0.33356  1.0000
  Pd  Pd4       1.0  0.50367  0.06670  0.66644  1.0000
  C   C1        1.0  0.72452  0.00777  0.38860  1.0000
  C   C2        1.0  0.27548  0.99223  0.61140  1.0000
  C   C3        1.0  0.76131  0.00229  0.27704  1.0000
  C   C4        1.0  0.23869  0.99771  0.72296  1.0000
  C   C5        1.0  0.65248  0.69814  0.26764  1.0000
  C   C6        1.0  0.34752  0.30186  0.73236  1.0000
  C   C7        1.0  0.60785  0.75388  0.36564  1.0000
  C   C8        1.0  0.39215  0.24612  0.63436  1.0000
  C   C9        1.0  0.83095  0.91494  0.47448  1.0000
  C   C10       1.0  0.16905  0.08506  0.52552  1.0000
  C   C11       1.0  0.84282  0.92125  0.22557  1.0000
  C   C12       1.0  0.15718  0.07875  0.77443  1.0000
  C   C13       1.0  0.87657  0.80199  0.28721  1.0000
  C   C14       1.0  0.12343  0.19801  0.71279  1.0000
  C   C15       1.0  0.75170  0.70595  0.21179  1.0000
  C   C16       1.0  0.24830  0.29405  0.78821  1.0000
  C   C17       1.0  0.77509  0.78810  0.46429  1.0000
  C   C18       1.0  0.22491  0.21190  0.53571  1.0000
  C   C19       1.0  0.91023  0.81385  0.43027  1.0000
  C   C20       1.0  0.08977  0.18615  0.56973  1.0000
