data_image0
_chemical_formula_structural       PdC8
_chemical_formula_sum              "Pd1 C8"
_cell_length_a       7.38508
_cell_length_b       7.38508
_cell_length_c       7.38508
_cell_angle_alpha    160.129
_cell_angle_beta     140.048
_cell_angle_gamma    45.0054

_space_group_name_H-M_alt    "P 1"
_space_group_IT_number       1

loop_
  _space_group_symop_operation_xyz
  'x, y, z'

loop_
  _atom_site_type_symbol
  _atom_site_label
  _atom_site_symmetry_multiplicity
  _atom_site_fract_x
  _atom_site_fract_y
  _atom_site_fract_z
  _atom_site_occupancy
  Pd  Pd1       1.0  0.75210  0.75210  0.00000  1.0000
  C   C1        1.0  0.24947  0.74947  0.50000  1.0000
  C   C2        1.0  0.25169  0.25169  0.00000  1.0000
  C   C3        1.0  0.59599  0.09599  0.50000  1.0000
  C   C4        1.0  0.90262  0.90262  0.00000  1.0000
  C   C5        1.0  0.67267  0.53227  0.14040  1.0000
  C   C6        1.0  0.82646  0.46629  0.36017  1.0000
  C   C7        1.0  0.10613  0.46629  0.63983  1.0000
  C   C8        1.0  0.39187  0.53227  0.85960  1.0000
