data_image0
_chemical_formula_structural       Pd4C34
_chemical_formula_sum              "Pd4 C34"
_cell_length_a       11.7565
_cell_length_b       9.1116
_cell_length_c       9.1116
_cell_angle_alpha    147.472
_cell_angle_beta     90
_cell_angle_gamma    90

_space_group_name_H-M_alt    "P 1"
_space_group_IT_number       1

loop_
  _space_group_symop_operation_xyz
  'x, y, z'

loop_
  _atom_site_type_symbol
  _atom_site_label
  _atom_site_symmetry_multiplicity
  _atom_site_fract_x
  _atom_site_fract_y
  _atom_site_fract_z
  _atom_site_occupancy
  Pd  Pd1       1.0  0.75000  0.90268  0.09732  1.0000
  Pd  Pd2       1.0  0.25000  0.09732  0.90268  1.0000
  Pd  Pd3       1.0  0.25000  0.72198  0.27802  1.0000
  Pd  Pd4       1.0  0.75000  0.27802  0.72198  1.0000
  C   C1        1.0  0.48607  0.74756  0.25244  1.0000
  C   C2        1.0  0.51393  0.25244  0.74756  1.0000
  C   C3        1.0  0.98607  0.25244  0.74756  1.0000
  C   C4        1.0  0.01393  0.74756  0.25244  1.0000
  C   C5        1.0  0.50000  0.50000  0.00000  1.0000
  C   C6        1.0  0.50000  0.50000  0.50000  1.0000
  C   C7        1.0  0.50000  0.00000  0.50000  1.0000
  C   C8        1.0  0.00000  0.50000  0.00000  1.0000
  C   C9        1.0  0.00000  0.50000  0.50000  1.0000
  C   C10       1.0  0.00000  0.00000  0.50000  1.0000
  C   C11       1.0  0.75000  0.66298  0.08410  1.0000
  C   C12       1.0  0.75000  0.48092  0.26368  1.0000
  C   C13       1.0  0.75000  0.98788  0.75412  1.0000
  C   C14       1.0  0.75000  0.24588  0.01212  1.0000
  C   C15       1.0  0.75000  0.91590  0.33702  1.0000
  C   C16       1.0  0.75000  0.73632  0.51908  1.0000
  C   C17       1.0  0.25000  0.33702  0.91590  1.0000
  C   C18       1.0  0.25000  0.51908  0.73632  1.0000
  C   C19       1.0  0.25000  0.01212  0.24588  1.0000
  C   C20       1.0  0.25000  0.75412  0.98788  1.0000
  C   C21       1.0  0.25000  0.08410  0.66298  1.0000
  C   C22       1.0  0.25000  0.26368  0.48092  1.0000
  C   C23       1.0  0.45956  0.80440  0.74931  1.0000
  C   C24       1.0  0.59278  0.93903  0.06097  1.0000
  C   C25       1.0  0.45956  0.25069  0.19560  1.0000
  C   C26       1.0  0.54044  0.19560  0.25069  1.0000
  C   C27       1.0  0.40722  0.06097  0.93903  1.0000
  C   C28       1.0  0.54044  0.74931  0.80440  1.0000
  C   C29       1.0  0.95956  0.19560  0.25069  1.0000
  C   C30       1.0  0.09278  0.06097  0.93903  1.0000
  C   C31       1.0  0.95956  0.74931  0.80440  1.0000
  C   C32       1.0  0.04044  0.80440  0.74931  1.0000
  C   C33       1.0  0.90722  0.93903  0.06097  1.0000
  C   C34       1.0  0.04044  0.25069  0.19560  1.0000
