data_image0
_chemical_formula_structural       Pd4Au24
_chemical_formula_sum              "Pd4 Au24"
_cell_length_a       10.7863
_cell_length_b       5.29682
_cell_length_c       9.45791
_cell_angle_alpha    77.4182
_cell_angle_beta     90
_cell_angle_gamma    90

_space_group_name_H-M_alt    "P 1"
_space_group_IT_number       1

loop_
  _space_group_symop_operation_xyz
  'x, y, z'

loop_
  _atom_site_type_symbol
  _atom_site_label
  _atom_site_symmetry_multiplicity
  _atom_site_fract_x
  _atom_site_fract_y
  _atom_site_fract_z
  _atom_site_occupancy
  Pd  Pd1       1.0  0.94026  0.19893  0.21224  1.0000
  Pd  Pd2       1.0  0.44026  0.80107  0.28776  1.0000
  Pd  Pd3       1.0  0.05974  0.80107  0.78776  1.0000
  Pd  Pd4       1.0  0.55974  0.19893  0.71224  1.0000
  Au  Au1       1.0  0.27604  0.54883  0.93543  1.0000
  Au  Au2       1.0  0.77604  0.45117  0.56457  1.0000
  Au  Au3       1.0  0.72396  0.45117  0.06457  1.0000
  Au  Au4       1.0  0.22396  0.54883  0.43543  1.0000
  Au  Au5       1.0  0.87306  0.99489  0.50614  1.0000
  Au  Au6       1.0  0.37306  0.00511  0.99386  1.0000
  Au  Au7       1.0  0.12694  0.00511  0.49386  1.0000
  Au  Au8       1.0  0.62694  0.99489  0.00614  1.0000
  Au  Au9       1.0  0.83606  0.22898  0.85021  1.0000
  Au  Au10      1.0  0.33606  0.77102  0.64979  1.0000
  Au  Au11      1.0  0.16394  0.77102  0.14979  1.0000
  Au  Au12      1.0  0.66394  0.22898  0.35021  1.0000
  Au  Au13      1.0  0.21387  0.23911  0.21942  1.0000
  Au  Au14      1.0  0.71387  0.76089  0.28058  1.0000
  Au  Au15      1.0  0.78613  0.76089  0.78058  1.0000
  Au  Au16      1.0  0.28613  0.23911  0.71942  1.0000
  Au  Au17      1.0  0.41983  0.21779  0.44825  1.0000
  Au  Au18      1.0  0.91983  0.78221  0.05175  1.0000
  Au  Au19      1.0  0.58017  0.78221  0.55175  1.0000
  Au  Au20      1.0  0.08017  0.21779  0.94825  1.0000
  Au  Au21      1.0  0.46791  0.37851  0.14653  1.0000
  Au  Au22      1.0  0.96791  0.62149  0.35347  1.0000
  Au  Au23      1.0  0.53209  0.62149  0.85347  1.0000
  Au  Au24      1.0  0.03209  0.37851  0.64653  1.0000
