data_image0
_chemical_formula_structural       Pd2C6
_chemical_formula_sum              "Pd2 C6"
_cell_length_a       6.27441
_cell_length_b       6.27441
_cell_length_c       3.45292
_cell_angle_alpha    66.473
_cell_angle_beta     66.473
_cell_angle_gamma    46.6808

_space_group_name_H-M_alt    "P 1"
_space_group_IT_number       1

loop_
  _space_group_symop_operation_xyz
  'x, y, z'

loop_
  _atom_site_type_symbol
  _atom_site_label
  _atom_site_symmetry_multiplicity
  _atom_site_fract_x
  _atom_site_fract_y
  _atom_site_fract_z
  _atom_site_occupancy
  Pd  Pd1       1.0  0.35245  0.35245  0.20323  1.0000
  Pd  Pd2       1.0  0.64755  0.64755  0.79677  1.0000
  C   C1        1.0  0.20657  0.79343  0.00000  1.0000
  C   C2        1.0  0.79343  0.20657  1.00000  1.0000
  C   C3        1.0  0.73575  0.73575  0.16897  1.0000
  C   C4        1.0  0.26425  0.26425  0.83103  1.0000
  C   C5        1.0  0.00093  0.00093  0.30089  1.0000
  C   C6        1.0  0.99907  0.99907  0.69911  1.0000
