data_image0
_chemical_formula_structural       Pd4C20
_chemical_formula_sum              "Pd4 C20"
_cell_length_a       5.56962
_cell_length_b       5.85615
_cell_length_c       10.6049
_cell_angle_alpha    96.2103
_cell_angle_beta     87.489
_cell_angle_gamma    100.15

_space_group_name_H-M_alt    "P 1"
_space_group_IT_number       1

loop_
  _space_group_symop_operation_xyz
  'x, y, z'

loop_
  _atom_site_type_symbol
  _atom_site_label
  _atom_site_symmetry_multiplicity
  _atom_site_fract_x
  _atom_site_fract_y
  _atom_site_fract_z
  _atom_site_occupancy
  Pd  Pd1       1.0  0.91698  0.97429  0.88233  1.0000
  Pd  Pd2       1.0  0.30721  0.35889  0.83741  1.0000
  Pd  Pd3       1.0  0.79455  0.82870  0.34443  1.0000
  Pd  Pd4       1.0  0.40004  0.41890  0.33626  1.0000
  C   C1        1.0  0.35633  0.39622  0.52953  1.0000
  C   C2        1.0  0.34196  0.07732  0.33666  1.0000
  C   C3        1.0  0.84008  0.45544  0.78792  1.0000
  C   C4        1.0  0.78059  0.38696  0.33658  1.0000
  C   C5        1.0  0.85032  0.65561  0.74336  1.0000
  C   C6        1.0  0.03332  0.36248  0.33606  1.0000
  C   C7        1.0  0.54424  0.90297  0.87958  1.0000
  C   C8        1.0  0.93901  0.27743  0.80743  1.0000
  C   C9        1.0  0.33563  0.38517  0.02903  1.0000
  C   C10       1.0  0.38367  0.40965  0.14369  1.0000
  C   C11       1.0  0.16628  0.88616  0.33773  1.0000
  C   C12       1.0  0.80273  0.81175  0.53014  1.0000
  C   C13       1.0  0.88161  0.83725  0.04491  1.0000
  C   C14       1.0  0.32733  0.35748  0.64289  1.0000
  C   C15       1.0  0.29285  0.91656  0.86940  1.0000
  C   C16       1.0  0.37331  0.70342  0.85889  1.0000
  C   C17       1.0  0.85598  0.17380  0.33884  1.0000
  C   C18       1.0  0.82324  0.82265  0.15821  1.0000
  C   C19       1.0  0.82627  0.74520  0.63490  1.0000
  C   C20       1.0  0.41767  0.86429  0.34012  1.0000
