data_image0
_chemical_formula_structural       Pd4C28
_chemical_formula_sum              "Pd4 C28"
_cell_length_a       7.4871
_cell_length_b       7.18051
_cell_length_c       4.88472
_cell_angle_alpha    90
_cell_angle_beta     90
_cell_angle_gamma    90

_space_group_name_H-M_alt    "P 1"
_space_group_IT_number       1

loop_
  _space_group_symop_operation_xyz
  'x, y, z'

loop_
  _atom_site_type_symbol
  _atom_site_label
  _atom_site_symmetry_multiplicity
  _atom_site_fract_x
  _atom_site_fract_y
  _atom_site_fract_z
  _atom_site_occupancy
  Pd  Pd1       1.0  0.88915  0.00000  0.25000  1.0000
  Pd  Pd2       1.0  0.11085  0.50000  0.75000  1.0000
  Pd  Pd3       1.0  0.11085  0.00000  0.75000  1.0000
  Pd  Pd4       1.0  0.88915  0.50000  0.25000  1.0000
  C   C1        1.0  0.59917  0.75000  0.93333  1.0000
  C   C2        1.0  0.40083  0.25000  0.06667  1.0000
  C   C3        1.0  0.59917  0.25000  0.56667  1.0000
  C   C4        1.0  0.40083  0.75000  0.43333  1.0000
  C   C5        1.0  0.74580  0.64991  0.53337  1.0000
  C   C6        1.0  0.25420  0.14991  0.46663  1.0000
  C   C7        1.0  0.74580  0.35009  0.96663  1.0000
  C   C8        1.0  0.25420  0.85009  0.03337  1.0000
  C   C9        1.0  0.25420  0.35009  0.46663  1.0000
  C   C10       1.0  0.74580  0.85009  0.53337  1.0000
  C   C11       1.0  0.25420  0.64991  0.03337  1.0000
  C   C12       1.0  0.74580  0.14991  0.96663  1.0000
  C   C13       1.0  0.79587  0.75000  0.01210  1.0000
  C   C14       1.0  0.20413  0.25000  0.98790  1.0000
  C   C15       1.0  0.79587  0.25000  0.48790  1.0000
  C   C16       1.0  0.20413  0.75000  0.51210  1.0000
  C   C17       1.0  0.87947  0.75000  0.74562  1.0000
  C   C18       1.0  0.12053  0.25000  0.25438  1.0000
  C   C19       1.0  0.87947  0.25000  0.75438  1.0000
  C   C20       1.0  0.12053  0.75000  0.24562  1.0000
  C   C21       1.0  0.59318  0.90572  0.71351  1.0000
  C   C22       1.0  0.40682  0.40572  0.28649  1.0000
  C   C23       1.0  0.59318  0.09428  0.78649  1.0000
  C   C24       1.0  0.40682  0.59428  0.21351  1.0000
  C   C25       1.0  0.40682  0.09428  0.28649  1.0000
  C   C26       1.0  0.59318  0.59428  0.71351  1.0000
  C   C27       1.0  0.40682  0.90572  0.21351  1.0000
  C   C28       1.0  0.59318  0.40572  0.78649  1.0000
