data_image0
_chemical_formula_structural       Au8Pd4
_chemical_formula_sum              "Au8 Pd4"
_cell_length_a       5.01303
_cell_length_b       5.01303
_cell_length_c       9.47598
_cell_angle_alpha    90
_cell_angle_beta     90
_cell_angle_gamma    120

_space_group_name_H-M_alt    "P 1"
_space_group_IT_number       1

loop_
  _space_group_symop_operation_xyz
  'x, y, z'

loop_
  _atom_site_type_symbol
  _atom_site_label
  _atom_site_symmetry_multiplicity
  _atom_site_fract_x
  _atom_site_fract_y
  _atom_site_fract_z
  _atom_site_occupancy
  Au  Au1       1.0  0.00000  0.00000  0.50000  1.0000
  Au  Au2       1.0  0.00000  0.00000  0.00000  1.0000
  Au  Au3       1.0  0.66191  0.66191  0.75000  1.0000
  Au  Au4       1.0  0.33809  1.00000  0.75000  1.0000
  Au  Au5       1.0  1.00000  0.33809  0.75000  1.0000
  Au  Au6       1.0  0.33809  0.33809  0.25000  1.0000
  Au  Au7       1.0  0.66191  0.00000  0.25000  1.0000
  Au  Au8       1.0  0.00000  0.66191  0.25000  1.0000
  Pd  Pd1       1.0  0.66667  0.33333  0.50000  1.0000
  Pd  Pd2       1.0  0.33333  0.66667  0.50000  1.0000
  Pd  Pd3       1.0  0.33333  0.66667  0.00000  1.0000
  Pd  Pd4       1.0  0.66667  0.33333  0.00000  1.0000
