data_image0
_chemical_formula_structural       Pd4C12
_chemical_formula_sum              "Pd4 C12"
_cell_length_a       8.3842
_cell_length_b       8.3842
_cell_length_c       8.3842
_cell_angle_alpha    60
_cell_angle_beta     60
_cell_angle_gamma    60

_space_group_name_H-M_alt    "P 1"
_space_group_IT_number       1

loop_
  _space_group_symop_operation_xyz
  'x, y, z'

loop_
  _atom_site_type_symbol
  _atom_site_label
  _atom_site_symmetry_multiplicity
  _atom_site_fract_x
  _atom_site_fract_y
  _atom_site_fract_z
  _atom_site_occupancy
  Pd  Pd1       1.0  0.62500  0.12500  0.12500  1.0000
  Pd  Pd2       1.0  0.12500  0.62500  0.12500  1.0000
  Pd  Pd3       1.0  0.12500  0.12500  0.62500  1.0000
  Pd  Pd4       1.0  0.12500  0.12500  0.12500  1.0000
  C   C1        1.0  0.89886  0.89886  0.10114  1.0000
  C   C2        1.0  0.10114  0.10114  0.89886  1.0000
  C   C3        1.0  0.89886  0.10114  0.89886  1.0000
  C   C4        1.0  0.10114  0.89886  0.10114  1.0000
  C   C5        1.0  0.10114  0.89886  0.89886  1.0000
  C   C6        1.0  0.89886  0.10114  0.10114  1.0000
  C   C7        1.0  0.35114  0.35114  0.14886  1.0000
  C   C8        1.0  0.14886  0.14886  0.35114  1.0000
  C   C9        1.0  0.35114  0.14886  0.35114  1.0000
  C   C10       1.0  0.14886  0.35114  0.14886  1.0000
  C   C11       1.0  0.14886  0.35114  0.35114  1.0000
  C   C12       1.0  0.35114  0.14886  0.14886  1.0000
