data_image0
_chemical_formula_structural       Pd6Au21
_chemical_formula_sum              "Pd6 Au21"
_cell_length_a       8.63483
_cell_length_b       8.63483
_cell_length_c       8.63483
_cell_angle_alpha    63.7259
_cell_angle_beta     63.7259
_cell_angle_gamma    63.7259

_space_group_name_H-M_alt    "P 1"
_space_group_IT_number       1

loop_
  _space_group_symop_operation_xyz
  'x, y, z'

loop_
  _atom_site_type_symbol
  _atom_site_label
  _atom_site_symmetry_multiplicity
  _atom_site_fract_x
  _atom_site_fract_y
  _atom_site_fract_z
  _atom_site_occupancy
  Pd  Pd1       1.0  0.13485  0.13485  0.13485  1.0000
  Pd  Pd2       1.0  0.86515  0.86515  0.86515  1.0000
  Pd  Pd3       1.0  0.50000  0.50000  0.50000  1.0000
  Pd  Pd4       1.0  1.00000  0.50000  0.50000  1.0000
  Pd  Pd5       1.0  0.50000  0.50000  0.00000  1.0000
  Pd  Pd6       1.0  0.50000  0.00000  0.50000  1.0000
  Au  Au1       1.0  0.88663  0.35238  0.35238  1.0000
  Au  Au2       1.0  0.38674  0.91565  0.91565  1.0000
  Au  Au3       1.0  0.35238  0.35238  0.88663  1.0000
  Au  Au4       1.0  0.91565  0.91565  0.38674  1.0000
  Au  Au5       1.0  0.91565  0.38674  0.91565  1.0000
  Au  Au6       1.0  0.35238  0.88663  0.35238  1.0000
  Au  Au7       1.0  0.11337  0.64762  0.64762  1.0000
  Au  Au8       1.0  0.61326  0.08435  0.08435  1.0000
  Au  Au9       1.0  0.64762  0.64762  0.11337  1.0000
  Au  Au10      1.0  0.08435  0.08435  0.61326  1.0000
  Au  Au11      1.0  0.08435  0.61326  0.08435  1.0000
  Au  Au12      1.0  0.64762  0.11337  0.64762  1.0000
  Au  Au13      1.0  0.28037  0.28037  0.28037  1.0000
  Au  Au14      1.0  0.66536  0.26577  0.26577  1.0000
  Au  Au15      1.0  0.26577  0.26577  0.66536  1.0000
  Au  Au16      1.0  0.26577  0.66536  0.26577  1.0000
  Au  Au17      1.0  0.71963  0.71963  0.71963  1.0000
  Au  Au18      1.0  0.33464  0.73423  0.73423  1.0000
  Au  Au19      1.0  0.73423  0.73423  0.33464  1.0000
  Au  Au20      1.0  0.73423  0.33464  0.73423  1.0000
  Au  Au21      1.0  0.00000  0.00000  0.00000  1.0000
