data_image0
_chemical_formula_structural       Pd12Au24
_chemical_formula_sum              "Pd12 Au24"
_cell_length_a       8.63027
_cell_length_b       8.63027
_cell_length_c       10.571
_cell_angle_alpha    90
_cell_angle_beta     90
_cell_angle_gamma    104.351

_space_group_name_H-M_alt    "P 1"
_space_group_IT_number       1

loop_
  _space_group_symop_operation_xyz
  'x, y, z'

loop_
  _atom_site_type_symbol
  _atom_site_label
  _atom_site_symmetry_multiplicity
  _atom_site_fract_x
  _atom_site_fract_y
  _atom_site_fract_z
  _atom_site_occupancy
  Pd  Pd1       1.0  0.12053  0.12053  0.84241  1.0000
  Pd  Pd2       1.0  0.37947  0.37947  0.34241  1.0000
  Pd  Pd3       1.0  0.62053  0.62053  0.65759  1.0000
  Pd  Pd4       1.0  0.87947  0.87947  0.15759  1.0000
  Pd  Pd5       1.0  0.83969  0.83969  0.88591  1.0000
  Pd  Pd6       1.0  0.66031  0.66031  0.38591  1.0000
  Pd  Pd7       1.0  0.33969  0.33969  0.61409  1.0000
  Pd  Pd8       1.0  0.16031  0.16031  0.11409  1.0000
  Pd  Pd9       1.0  0.37195  0.62805  0.50000  1.0000
  Pd  Pd10      1.0  0.12805  0.87195  0.00000  1.0000
  Pd  Pd11      1.0  0.62805  0.37195  0.50000  1.0000
  Pd  Pd12      1.0  0.87195  0.12805  0.00000  1.0000
  Au  Au1       1.0  0.58901  0.58901  0.90596  1.0000
  Au  Au2       1.0  0.91099  0.91099  0.40596  1.0000
  Au  Au3       1.0  0.08901  0.08901  0.59404  1.0000
  Au  Au4       1.0  0.41099  0.41099  0.09404  1.0000
  Au  Au5       1.0  0.18077  0.81923  0.50000  1.0000
  Au  Au6       1.0  0.31923  0.68077  0.00000  1.0000
  Au  Au7       1.0  0.81923  0.18077  0.50000  1.0000
  Au  Au8       1.0  0.68077  0.31923  0.00000  1.0000
  Au  Au9       1.0  0.40334  0.09437  0.94994  1.0000
  Au  Au10      1.0  0.09666  0.40563  0.44994  1.0000
  Au  Au11      1.0  0.59437  0.90334  0.55006  1.0000
  Au  Au12      1.0  0.90563  0.59666  0.05006  1.0000
  Au  Au13      1.0  0.91098  0.20797  0.25056  1.0000
  Au  Au14      1.0  0.58902  0.29203  0.75056  1.0000
  Au  Au15      1.0  0.70797  0.41098  0.24944  1.0000
  Au  Au16      1.0  0.79203  0.08902  0.74944  1.0000
  Au  Au17      1.0  0.08902  0.79203  0.74944  1.0000
  Au  Au18      1.0  0.41098  0.70797  0.24944  1.0000
  Au  Au19      1.0  0.29203  0.58902  0.75056  1.0000
  Au  Au20      1.0  0.20797  0.91098  0.25056  1.0000
  Au  Au21      1.0  0.09437  0.40334  0.94994  1.0000
  Au  Au22      1.0  0.40563  0.09666  0.44994  1.0000
  Au  Au23      1.0  0.90334  0.59437  0.55006  1.0000
  Au  Au24      1.0  0.59666  0.90563  0.05006  1.0000
