data_image0
_chemical_formula_structural       Pd7Au10
_chemical_formula_sum              "Pd7 Au10"
_cell_length_a       9.52184
_cell_length_b       9.52184
_cell_length_c       11.5268
_cell_angle_alpha    88.1134
_cell_angle_beta     88.1134
_cell_angle_gamma    17.4756

_space_group_name_H-M_alt    "P 1"
_space_group_IT_number       1

loop_
  _space_group_symop_operation_xyz
  'x, y, z'

loop_
  _atom_site_type_symbol
  _atom_site_label
  _atom_site_symmetry_multiplicity
  _atom_site_fract_x
  _atom_site_fract_y
  _atom_site_fract_z
  _atom_site_occupancy
  Pd  Pd1       1.0  0.81332  0.81332  0.48229  1.0000
  Pd  Pd2       1.0  0.18668  0.18668  0.51771  1.0000
  Pd  Pd3       1.0  0.69738  0.69738  0.31439  1.0000
  Pd  Pd4       1.0  0.30262  0.30262  0.68561  1.0000
  Pd  Pd5       1.0  0.32614  0.32614  0.28030  1.0000
  Pd  Pd6       1.0  0.67386  0.67386  0.71970  1.0000
  Pd  Pd7       1.0  0.00000  0.00000  0.00000  1.0000
  Au  Au1       1.0  0.86587  0.86587  0.08335  1.0000
  Au  Au2       1.0  0.13413  0.13413  0.91665  1.0000
  Au  Au3       1.0  0.22767  0.22767  0.10609  1.0000
  Au  Au4       1.0  0.77233  0.77233  0.89391  1.0000
  Au  Au5       1.0  0.59046  0.59046  0.13855  1.0000
  Au  Au6       1.0  0.40954  0.40954  0.86145  1.0000
  Au  Au7       1.0  0.06767  0.06767  0.35411  1.0000
  Au  Au8       1.0  0.55889  0.55889  0.58114  1.0000
  Au  Au9       1.0  0.44111  0.44111  0.41886  1.0000
  Au  Au10      1.0  0.93233  0.93233  0.64589  1.0000
