data_image0
_chemical_formula_structural       C20Pd4
_chemical_formula_sum              "C20 Pd4"
_cell_length_a       6.38219
_cell_length_b       6.38219
_cell_length_c       9.49911
_cell_angle_alpha    87.3576
_cell_angle_beta     87.3576
_cell_angle_gamma    135.146

_space_group_name_H-M_alt    "P 1"
_space_group_IT_number       1

loop_
  _space_group_symop_operation_xyz
  'x, y, z'

loop_
  _atom_site_type_symbol
  _atom_site_label
  _atom_site_symmetry_multiplicity
  _atom_site_fract_x
  _atom_site_fract_y
  _atom_site_fract_z
  _atom_site_occupancy
  C   C1        1.0  0.74979  0.53253  0.71888  1.0000
  C   C2        1.0  0.46747  0.25021  0.78112  1.0000
  C   C3        1.0  0.25021  0.46747  0.28112  1.0000
  C   C4        1.0  0.53253  0.74979  0.21888  1.0000
  C   C5        1.0  0.11225  0.49013  0.66617  1.0000
  C   C6        1.0  0.50987  0.88775  0.83383  1.0000
  C   C7        1.0  0.88775  0.50987  0.33383  1.0000
  C   C8        1.0  0.49013  0.11225  0.16617  1.0000
  C   C9        1.0  0.07855  0.37023  0.55139  1.0000
  C   C10       1.0  0.62977  0.92145  0.94861  1.0000
  C   C11       1.0  0.92145  0.62977  0.44861  1.0000
  C   C12       1.0  0.37023  0.07855  0.05139  1.0000
  C   C13       1.0  0.91949  0.69392  0.58533  1.0000
  C   C14       1.0  0.30608  0.08051  0.91467  1.0000
  C   C15       1.0  0.08051  0.30608  0.41467  1.0000
  C   C16       1.0  0.69392  0.91949  0.08533  1.0000
  C   C17       1.0  0.07243  0.68714  0.70439  1.0000
  C   C18       1.0  0.31286  0.92757  0.79561  1.0000
  C   C19       1.0  0.92757  0.31286  0.29561  1.0000
  C   C20       1.0  0.68714  0.07243  0.20439  1.0000
  Pd  Pd1       1.0  0.71490  0.83508  0.68438  1.0000
  Pd  Pd2       1.0  0.16492  0.28510  0.81562  1.0000
  Pd  Pd3       1.0  0.28510  0.16492  0.31562  1.0000
  Pd  Pd4       1.0  0.83508  0.71490  0.18438  1.0000
