data_image0
_chemical_formula_structural       Hg6Pd2
_chemical_formula_sum              "Hg6 Pd2"
_cell_length_a       5.84116
_cell_length_b       4.75572
_cell_length_c       7.39736
_cell_angle_alpha    68.2218
_cell_angle_beta     88.3891
_cell_angle_gamma    89.8932

_space_group_name_H-M_alt    "P 1"
_space_group_IT_number       1

loop_
  _space_group_symop_operation_xyz
  'x, y, z'

loop_
  _atom_site_type_symbol
  _atom_site_label
  _atom_site_symmetry_multiplicity
  _atom_site_fract_x
  _atom_site_fract_y
  _atom_site_fract_z
  _atom_site_occupancy
  Hg  Hg1       1.0  0.77391  0.29656  0.60849  1.0000
  Hg  Hg2       1.0  0.24663  0.44839  0.07328  1.0000
  Hg  Hg3       1.0  0.72876  0.96883  0.33906  1.0000
  Hg  Hg4       1.0  0.75337  0.55161  0.92672  1.0000
  Hg  Hg5       1.0  0.27124  0.03117  0.66094  1.0000
  Hg  Hg6       1.0  0.22609  0.70344  0.39151  1.0000
  Pd  Pd1       1.0  0.50000  0.00000  0.00000  1.0000
  Pd  Pd2       1.0  0.00000  0.00000  0.00000  1.0000
