data_image0
_chemical_formula_structural       Pd6C22
_chemical_formula_sum              "Pd6 C22"
_cell_length_a       3.53481
_cell_length_b       3.53481
_cell_length_c       35.1316
_cell_angle_alpha    100.854
_cell_angle_beta     100.854
_cell_angle_gamma    42.2626

_space_group_name_H-M_alt    "P 1"
_space_group_IT_number       1

loop_
  _space_group_symop_operation_xyz
  'x, y, z'

loop_
  _atom_site_type_symbol
  _atom_site_label
  _atom_site_symmetry_multiplicity
  _atom_site_fract_x
  _atom_site_fract_y
  _atom_site_fract_z
  _atom_site_occupancy
  Pd  Pd1       1.0  0.45996  0.45996  0.14433  1.0000
  Pd  Pd2       1.0  0.10323  0.10323  0.31345  1.0000
  Pd  Pd3       1.0  0.74709  0.74709  0.46273  1.0000
  Pd  Pd4       1.0  0.25291  0.25291  0.53727  1.0000
  Pd  Pd5       1.0  0.89677  0.89677  0.68655  1.0000
  Pd  Pd6       1.0  0.54004  0.54004  0.85567  1.0000
  C   C1        1.0  0.92634  0.92634  0.95941  1.0000
  C   C2        1.0  0.53702  0.53702  0.02067  1.0000
  C   C3        1.0  0.07366  0.07366  0.04059  1.0000
  C   C4        1.0  0.14836  0.14836  0.08218  1.0000
  C   C5        1.0  0.28030  0.28030  0.18634  1.0000
  C   C6        1.0  0.67848  0.67848  0.10264  1.0000
  C   C7        1.0  0.76176  0.76176  0.20501  1.0000
  C   C8        1.0  0.73322  0.73322  0.24546  1.0000
  C   C9        1.0  0.21725  0.21725  0.26415  1.0000
  C   C10       1.0  0.35517  0.35517  0.36506  1.0000
  C   C11       1.0  0.44402  0.44402  0.44576  1.0000
  C   C12       1.0  0.89715  0.89715  0.37261  1.0000
  C   C13       1.0  0.10285  0.10285  0.62739  1.0000
  C   C14       1.0  0.55598  0.55598  0.55424  1.0000
  C   C15       1.0  0.64483  0.64483  0.63494  1.0000
  C   C16       1.0  0.78275  0.78275  0.73585  1.0000
  C   C17       1.0  0.26678  0.26678  0.75454  1.0000
  C   C18       1.0  0.23824  0.23824  0.79499  1.0000
  C   C19       1.0  0.32152  0.32152  0.89736  1.0000
  C   C20       1.0  0.71970  0.71970  0.81366  1.0000
  C   C21       1.0  0.85164  0.85164  0.91782  1.0000
  C   C22       1.0  0.46298  0.46298  0.97933  1.0000
