data_image0
_chemical_formula_structural       Pd4C28
_chemical_formula_sum              "Pd4 C28"
_cell_length_a       7.96088
_cell_length_b       7.96088
_cell_length_c       7.96088
_cell_angle_alpha    129.883
_cell_angle_beta     141.413
_cell_angle_gamma    64.9828

_space_group_name_H-M_alt    "P 1"
_space_group_IT_number       1

loop_
  _space_group_symop_operation_xyz
  'x, y, z'

loop_
  _atom_site_type_symbol
  _atom_site_label
  _atom_site_symmetry_multiplicity
  _atom_site_fract_x
  _atom_site_fract_y
  _atom_site_fract_z
  _atom_site_occupancy
  Pd  Pd1       1.0  0.00000  0.50000  0.00000  1.0000
  Pd  Pd2       1.0  0.00000  0.00000  0.50000  1.0000
  Pd  Pd3       1.0  0.31209  0.25000  0.06209  1.0000
  Pd  Pd4       1.0  0.68791  0.75000  0.93791  1.0000
  C   C1        1.0  0.33998  0.46263  0.87735  1.0000
  C   C2        1.0  0.27602  0.60124  0.07093  1.0000
  C   C3        1.0  0.27602  0.20509  0.67478  1.0000
  C   C4        1.0  0.60077  0.97101  0.62976  1.0000
  C   C5        1.0  0.41022  0.80834  0.60188  1.0000
  C   C6        1.0  0.51363  0.71681  0.44416  1.0000
  C   C7        1.0  0.51363  0.06948  0.79682  1.0000
  C   C8        1.0  0.84125  0.47101  0.37024  1.0000
  C   C9        1.0  0.91472  0.03737  0.87735  1.0000
  C   C10       1.0  0.29354  0.69166  0.60188  1.0000
  C   C11       1.0  0.96969  0.29491  0.07093  1.0000
  C   C12       1.0  0.96969  0.89876  0.67478  1.0000
  C   C13       1.0  0.77266  0.21681  0.20318  1.0000
  C   C14       1.0  0.77266  0.56948  0.55584  1.0000
  C   C15       1.0  0.22734  0.43052  0.44416  1.0000
  C   C16       1.0  0.22734  0.78319  0.79682  1.0000
  C   C17       1.0  0.03031  0.10124  0.32522  1.0000
  C   C18       1.0  0.03031  0.70509  0.92907  1.0000
  C   C19       1.0  0.70646  0.30834  0.39812  1.0000
  C   C20       1.0  0.08528  0.96263  0.12265  1.0000
  C   C21       1.0  0.15875  0.52899  0.62976  1.0000
  C   C22       1.0  0.48637  0.93052  0.20318  1.0000
  C   C23       1.0  0.48637  0.28319  0.55584  1.0000
  C   C24       1.0  0.58978  0.19166  0.39812  1.0000
  C   C25       1.0  0.39923  0.02899  0.37024  1.0000
  C   C26       1.0  0.72398  0.79491  0.32522  1.0000
  C   C27       1.0  0.72398  0.39876  0.92907  1.0000
  C   C28       1.0  0.66002  0.53737  0.12265  1.0000
