data_image0
_chemical_formula_structural       C4Pd3
_chemical_formula_sum              "C4 Pd3"
_cell_length_a       9.87792
_cell_length_b       9.87792
_cell_length_c       9.87792
_cell_angle_alpha    18.4846
_cell_angle_beta     18.4846
_cell_angle_gamma    18.4846

_space_group_name_H-M_alt    "P 1"
_space_group_IT_number       1

loop_
  _space_group_symop_operation_xyz
  'x, y, z'

loop_
  _atom_site_type_symbol
  _atom_site_label
  _atom_site_symmetry_multiplicity
  _atom_site_fract_x
  _atom_site_fract_y
  _atom_site_fract_z
  _atom_site_occupancy
  C   C1        1.0  0.37546  0.37546  0.37546  1.0000
  C   C2        1.0  0.62824  0.62824  0.62824  1.0000
  C   C3        1.0  0.20658  0.20658  0.20658  1.0000
  C   C4        1.0  0.79073  0.79073  0.79073  1.0000
  Pd  Pd1       1.0  0.51140  0.51140  0.51140  1.0000
  Pd  Pd2       1.0  0.98815  0.98815  0.98815  1.0000
  Pd  Pd3       1.0  0.08444  0.08444  0.08444  1.0000
