data_image0
_chemical_formula_structural       Pd4C44
_chemical_formula_sum              "Pd4 C44"
_cell_length_a       7.50841
_cell_length_b       4.26202
_cell_length_c       13.4936
_cell_angle_alpha    95.1762
_cell_angle_beta     90
_cell_angle_gamma    90

_space_group_name_H-M_alt    "P 1"
_space_group_IT_number       1

loop_
  _space_group_symop_operation_xyz
  'x, y, z'

loop_
  _atom_site_type_symbol
  _atom_site_label
  _atom_site_symmetry_multiplicity
  _atom_site_fract_x
  _atom_site_fract_y
  _atom_site_fract_z
  _atom_site_occupancy
  Pd  Pd1       1.0  0.50947  0.92668  0.68101  1.0000
  Pd  Pd2       1.0  0.49053  0.07332  0.31899  1.0000
  Pd  Pd3       1.0  0.00947  0.07332  0.31899  1.0000
  Pd  Pd4       1.0  0.99053  0.92668  0.68101  1.0000
  C   C1        1.0  0.39278  0.78649  0.11246  1.0000
  C   C2        1.0  0.60722  0.21351  0.88754  1.0000
  C   C3        1.0  0.89278  0.21351  0.88754  1.0000
  C   C4        1.0  0.10722  0.78649  0.11246  1.0000
  C   C5        1.0  0.75000  0.92232  0.24619  1.0000
  C   C6        1.0  0.25000  0.07768  0.75381  1.0000
  C   C7        1.0  0.92118  0.70534  0.09326  1.0000
  C   C8        1.0  0.07882  0.29466  0.90674  1.0000
  C   C9        1.0  0.42118  0.29466  0.90674  1.0000
  C   C10       1.0  0.57882  0.70534  0.09326  1.0000
  C   C11       1.0  0.75000  0.69625  0.49268  1.0000
  C   C12       1.0  0.25000  0.30375  0.50732  1.0000
  C   C13       1.0  0.75000  0.44480  0.92336  1.0000
  C   C14       1.0  0.25000  0.55520  0.07664  1.0000
  C   C15       1.0  0.35046  0.74732  0.22258  1.0000
  C   C16       1.0  0.64954  0.25268  0.77742  1.0000
  C   C17       1.0  0.85046  0.25268  0.77742  1.0000
  C   C18       1.0  0.14954  0.74732  0.22258  1.0000
  C   C19       1.0  0.75000  0.76169  0.60918  1.0000
  C   C20       1.0  0.25000  0.23831  0.39082  1.0000
  C   C21       1.0  0.75000  0.85959  0.13245  1.0000
  C   C22       1.0  0.25000  0.14041  0.86755  1.0000
  C   C23       1.0  0.91416  0.72719  0.43991  1.0000
  C   C24       1.0  0.08584  0.27281  0.56009  1.0000
  C   C25       1.0  0.41416  0.27281  0.56009  1.0000
  C   C26       1.0  0.58584  0.72719  0.43991  1.0000
  C   C27       1.0  0.75000  0.56693  0.20723  1.0000
  C   C28       1.0  0.25000  0.43307  0.79277  1.0000
  C   C29       1.0  0.75000  0.70974  0.85513  1.0000
  C   C30       1.0  0.25000  0.29026  0.14487  1.0000
  C   C31       1.0  0.41816  0.37569  0.20913  1.0000
  C   C32       1.0  0.58184  0.62431  0.79087  1.0000
  C   C33       1.0  0.91816  0.62431  0.79087  1.0000
  C   C34       1.0  0.08184  0.37569  0.20913  1.0000
  C   C35       1.0  0.42182  0.72959  0.42655  1.0000
  C   C36       1.0  0.57818  0.27041  0.57345  1.0000
  C   C37       1.0  0.92182  0.27041  0.57345  1.0000
  C   C38       1.0  0.07818  0.72959  0.42655  1.0000
  C   C39       1.0  0.91696  0.45686  0.15536  1.0000
  C   C40       1.0  0.08304  0.54314  0.84464  1.0000
  C   C41       1.0  0.41696  0.54314  0.84464  1.0000
  C   C42       1.0  0.58304  0.45686  0.15536  1.0000
  C   C43       1.0  0.75000  0.42030  0.56886  1.0000
  C   C44       1.0  0.25000  0.57970  0.43114  1.0000
