data_image0
_chemical_formula_structural       Pd4C20
_chemical_formula_sum              "Pd4 C20"
_cell_length_a       7.14588
_cell_length_b       4.39459
_cell_length_c       7.56017
_cell_angle_alpha    91.4274
_cell_angle_beta     90
_cell_angle_gamma    90

_space_group_name_H-M_alt    "P 1"
_space_group_IT_number       1

loop_
  _space_group_symop_operation_xyz
  'x, y, z'

loop_
  _atom_site_type_symbol
  _atom_site_label
  _atom_site_symmetry_multiplicity
  _atom_site_fract_x
  _atom_site_fract_y
  _atom_site_fract_z
  _atom_site_occupancy
  Pd  Pd1       1.0  0.83347  0.03300  0.57111  1.0000
  Pd  Pd2       1.0  0.33347  0.96700  0.92889  1.0000
  Pd  Pd3       1.0  0.16653  0.96700  0.42889  1.0000
  Pd  Pd4       1.0  0.66653  0.03300  0.07111  1.0000
  C   C1        1.0  0.98015  0.43643  0.58115  1.0000
  C   C2        1.0  0.48015  0.56357  0.91885  1.0000
  C   C3        1.0  0.01985  0.56357  0.41885  1.0000
  C   C4        1.0  0.51985  0.43643  0.08115  1.0000
  C   C5        1.0  0.49657  0.41454  0.41778  1.0000
  C   C6        1.0  0.99657  0.58546  0.08222  1.0000
  C   C7        1.0  0.50343  0.58546  0.58222  1.0000
  C   C8        1.0  0.00343  0.41454  0.91778  1.0000
  C   C9        1.0  0.50634  0.42493  0.74575  1.0000
  C   C10       1.0  0.00634  0.57507  0.75425  1.0000
  C   C11       1.0  0.49366  0.57507  0.25425  1.0000
  C   C12       1.0  0.99366  0.42493  0.24575  1.0000
  C   C13       1.0  0.00991  0.08198  0.91716  1.0000
  C   C14       1.0  0.50991  0.91802  0.58284  1.0000
  C   C15       1.0  0.99009  0.91802  0.08284  1.0000
  C   C16       1.0  0.49009  0.08198  0.41716  1.0000
  C   C17       1.0  0.51613  0.10079  0.74023  1.0000
  C   C18       1.0  0.01613  0.89921  0.75977  1.0000
  C   C19       1.0  0.48387  0.89921  0.25977  1.0000
  C   C20       1.0  0.98387  0.10079  0.24023  1.0000
