data_image0
_chemical_formula_structural       Pd4Hg8
_chemical_formula_sum              "Pd4 Hg8"
_cell_length_a       11.9925
_cell_length_b       11.9925
_cell_length_c       11.9925
_cell_angle_alpha    133.288
_cell_angle_beta     121.184
_cell_angle_gamma    78.2615

_space_group_name_H-M_alt    "P 1"
_space_group_IT_number       1

loop_
  _space_group_symop_operation_xyz
  'x, y, z'

loop_
  _atom_site_type_symbol
  _atom_site_label
  _atom_site_symmetry_multiplicity
  _atom_site_fract_x
  _atom_site_fract_y
  _atom_site_fract_z
  _atom_site_occupancy
  Pd  Pd1       1.0  0.04348  0.89194  0.14806  1.0000
  Pd  Pd2       1.0  0.95652  0.10457  0.84846  1.0000
  Pd  Pd3       1.0  0.75611  0.60457  0.14806  1.0000
  Pd  Pd4       1.0  0.24389  0.39194  0.84846  1.0000
  Hg  Hg1       1.0  0.17062  0.15185  0.50169  1.0000
  Hg  Hg2       1.0  0.82938  0.33106  0.98122  1.0000
  Hg  Hg3       1.0  0.84984  0.83106  0.50169  1.0000
  Hg  Hg4       1.0  0.15016  0.65185  0.98122  1.0000
  Hg  Hg5       1.0  0.87522  0.75562  0.13084  1.0000
  Hg  Hg6       1.0  0.12478  0.25562  0.88040  1.0000
  Hg  Hg7       1.0  0.00000  0.02037  0.02037  1.0000
  Hg  Hg8       1.0  0.50000  0.52037  0.02037  1.0000
