data_image0
_chemical_formula_structural       Pd4C20
_chemical_formula_sum              "Pd4 C20"
_cell_length_a       8.9332
_cell_length_b       4.66022
_cell_length_c       6.81277
_cell_angle_alpha    86.8219
_cell_angle_beta     90
_cell_angle_gamma    90

_space_group_name_H-M_alt    "P 1"
_space_group_IT_number       1

loop_
  _space_group_symop_operation_xyz
  'x, y, z'

loop_
  _atom_site_type_symbol
  _atom_site_label
  _atom_site_symmetry_multiplicity
  _atom_site_fract_x
  _atom_site_fract_y
  _atom_site_fract_z
  _atom_site_occupancy
  Pd  Pd1       1.0  0.49896  0.02284  0.35748  1.0000
  Pd  Pd2       1.0  0.71152  0.54426  0.91149  1.0000
  Pd  Pd3       1.0  0.21152  0.45574  0.08851  1.0000
  Pd  Pd4       1.0  0.99896  0.97716  0.64252  1.0000
  C   C1        1.0  0.23119  0.97005  0.59837  1.0000
  C   C2        1.0  0.34107  0.94572  0.82647  1.0000
  C   C3        1.0  0.78592  0.77685  0.28095  1.0000
  C   C4        1.0  0.54055  0.57618  0.32152  1.0000
  C   C5        1.0  0.96065  0.59004  0.54387  1.0000
  C   C6        1.0  0.81099  0.94731  0.82901  1.0000
  C   C7        1.0  0.30104  0.87579  0.02657  1.0000
  C   C8        1.0  0.34345  0.76903  0.65875  1.0000
  C   C9        1.0  0.87635  0.53327  0.38391  1.0000
  C   C10       1.0  0.64870  0.64129  0.19644  1.0000
  C   C11       1.0  0.14870  0.35871  0.80356  1.0000
  C   C12       1.0  0.37635  0.46673  0.61609  1.0000
  C   C13       1.0  0.84345  0.23097  0.34125  1.0000
  C   C14       1.0  0.80104  0.12421  0.97343  1.0000
  C   C15       1.0  0.31099  0.05269  0.17099  1.0000
  C   C16       1.0  0.46065  0.40996  0.45613  1.0000
  C   C17       1.0  0.04055  0.42382  0.67848  1.0000
  C   C18       1.0  0.28592  0.22315  0.71905  1.0000
  C   C19       1.0  0.84107  0.05428  0.17353  1.0000
  C   C20       1.0  0.73119  0.02995  0.40163  1.0000
