data_image0
_chemical_formula_structural       Pd6Hg32
_chemical_formula_sum              "Pd6 Hg32"
_cell_length_a       11.0061
_cell_length_b       11.0061
_cell_length_c       11.1702
_cell_angle_alpha    69.7724
_cell_angle_beta     69.7724
_cell_angle_gamma    51.0228

_space_group_name_H-M_alt    "P 1"
_space_group_IT_number       1

loop_
  _space_group_symop_operation_xyz
  'x, y, z'

loop_
  _atom_site_type_symbol
  _atom_site_label
  _atom_site_symmetry_multiplicity
  _atom_site_fract_x
  _atom_site_fract_y
  _atom_site_fract_z
  _atom_site_occupancy
  Pd  Pd1       1.0  0.61573  0.38427  0.25000  1.0000
  Pd  Pd2       1.0  0.38427  0.61573  0.75000  1.0000
  Pd  Pd3       1.0  0.94916  0.65825  0.49523  1.0000
  Pd  Pd4       1.0  0.65825  0.94916  0.99523  1.0000
  Pd  Pd5       1.0  0.05084  0.34175  0.50477  1.0000
  Pd  Pd6       1.0  0.34175  0.05084  0.00477  1.0000
  Hg  Hg1       1.0  0.32762  0.67238  0.25000  1.0000
  Hg  Hg2       1.0  0.67238  0.32762  0.75000  1.0000
  Hg  Hg3       1.0  0.90527  0.09473  0.25000  1.0000
  Hg  Hg4       1.0  0.09473  0.90527  0.75000  1.0000
  Hg  Hg5       1.0  0.06058  0.82456  0.49960  1.0000
  Hg  Hg6       1.0  0.82456  0.06058  0.99960  1.0000
  Hg  Hg7       1.0  0.93942  0.17544  0.50040  1.0000
  Hg  Hg8       1.0  0.17544  0.93942  0.00040  1.0000
  Hg  Hg9       1.0  0.58084  0.30856  0.51910  1.0000
  Hg  Hg10      1.0  0.30856  0.58084  0.01910  1.0000
  Hg  Hg11      1.0  0.41916  0.69144  0.48090  1.0000
  Hg  Hg12      1.0  0.69144  0.41916  0.98090  1.0000
  Hg  Hg13      1.0  0.99349  0.75723  0.23161  1.0000
  Hg  Hg14      1.0  0.75723  0.99349  0.73161  1.0000
  Hg  Hg15      1.0  0.00651  0.24277  0.76839  1.0000
  Hg  Hg16      1.0  0.24277  0.00651  0.26839  1.0000
  Hg  Hg17      1.0  0.49519  0.22696  0.25417  1.0000
  Hg  Hg18      1.0  0.22696  0.49519  0.75417  1.0000
  Hg  Hg19      1.0  0.50481  0.77304  0.74583  1.0000
  Hg  Hg20      1.0  0.77304  0.50481  0.24583  1.0000
  Hg  Hg21      1.0  0.26401  0.40298  0.49905  1.0000
  Hg  Hg22      1.0  0.40298  0.26401  0.99905  1.0000
  Hg  Hg23      1.0  0.73599  0.59702  0.50095  1.0000
  Hg  Hg24      1.0  0.59702  0.73599  0.00095  1.0000
  Hg  Hg25      1.0  0.66888  0.95821  0.50784  1.0000
  Hg  Hg26      1.0  0.95821  0.66888  0.00784  1.0000
  Hg  Hg27      1.0  0.33112  0.04179  0.49216  1.0000
  Hg  Hg28      1.0  0.04179  0.33112  0.99216  1.0000
  Hg  Hg29      1.0  0.87901  0.61697  0.76220  1.0000
  Hg  Hg30      1.0  0.61697  0.87901  0.26220  1.0000
  Hg  Hg31      1.0  0.12099  0.38303  0.23780  1.0000
  Hg  Hg32      1.0  0.38303  0.12099  0.73780  1.0000
