data_image0
_chemical_formula_structural       Pd12C16
_chemical_formula_sum              "Pd12 C16"
_cell_length_a       6.72863
_cell_length_b       6.72863
_cell_length_c       10.2658
_cell_angle_alpha    73.7671
_cell_angle_beta     73.7671
_cell_angle_gamma    50.2872

_space_group_name_H-M_alt    "P 1"
_space_group_IT_number       1

loop_
  _space_group_symop_operation_xyz
  'x, y, z'

loop_
  _atom_site_type_symbol
  _atom_site_label
  _atom_site_symmetry_multiplicity
  _atom_site_fract_x
  _atom_site_fract_y
  _atom_site_fract_z
  _atom_site_occupancy
  Pd  Pd1       1.0  0.78743  0.31600  0.75922  1.0000
  Pd  Pd2       1.0  0.31600  0.78743  0.75922  1.0000
  Pd  Pd3       1.0  0.00000  0.00000  0.50000  1.0000
  Pd  Pd4       1.0  0.36619  0.36619  0.68949  1.0000
  Pd  Pd5       1.0  0.00000  0.50000  0.50000  1.0000
  Pd  Pd6       1.0  0.68400  0.21257  0.24078  1.0000
  Pd  Pd7       1.0  0.50000  0.00000  0.50000  1.0000
  Pd  Pd8       1.0  0.21257  0.68400  0.24078  1.0000
  Pd  Pd9       1.0  0.00000  0.00000  0.00000  1.0000
  Pd  Pd10      1.0  0.63381  0.63381  0.31051  1.0000
  Pd  Pd11      1.0  0.50000  0.00000  0.00000  1.0000
  Pd  Pd12      1.0  0.00000  0.50000  0.00000  1.0000
  C   C1        1.0  0.00620  0.74042  0.70616  1.0000
  C   C2        1.0  0.74042  0.00620  0.70616  1.0000
  C   C3        1.0  0.34456  0.34456  0.36904  1.0000
  C   C4        1.0  0.88523  0.88523  0.39435  1.0000
  C   C5        1.0  0.72142  0.95849  0.13780  1.0000
  C   C6        1.0  0.11477  0.11477  0.60565  1.0000
  C   C7        1.0  0.25958  0.99380  0.29384  1.0000
  C   C8        1.0  0.83256  0.83256  0.82918  1.0000
  C   C9        1.0  0.95849  0.72142  0.13780  1.0000
  C   C10       1.0  0.65544  0.65544  0.63096  1.0000
  C   C11       1.0  0.38852  0.38852  0.88033  1.0000
  C   C12       1.0  0.99380  0.25958  0.29384  1.0000
  C   C13       1.0  0.61148  0.61148  0.11967  1.0000
  C   C14       1.0  0.04151  0.27858  0.86220  1.0000
  C   C15       1.0  0.16744  0.16744  0.17082  1.0000
  C   C16       1.0  0.27858  0.04151  0.86220  1.0000
