data_image0
_chemical_formula_structural       Pd4Hg8
_chemical_formula_sum              "Pd4 Hg8"
_cell_length_a       14.4939
_cell_length_b       12.8394
_cell_length_c       8.74821
_cell_angle_alpha    81.9887
_cell_angle_beta     61.3067
_cell_angle_gamma    36.7046

_space_group_name_H-M_alt    "P 1"
_space_group_IT_number       1

loop_
  _space_group_symop_operation_xyz
  'x, y, z'

loop_
  _atom_site_type_symbol
  _atom_site_label
  _atom_site_symmetry_multiplicity
  _atom_site_fract_x
  _atom_site_fract_y
  _atom_site_fract_z
  _atom_site_occupancy
  Pd  Pd1       1.0  0.93692  0.93692  0.56308  1.0000
  Pd  Pd2       1.0  0.56308  0.56308  0.93692  1.0000
  Pd  Pd3       1.0  0.31308  0.31308  0.68692  1.0000
  Pd  Pd4       1.0  0.68692  0.68692  0.31308  1.0000
  Hg  Hg1       1.0  0.43884  0.06116  0.43884  1.0000
  Hg  Hg2       1.0  0.81116  0.18884  0.81116  1.0000
  Hg  Hg3       1.0  0.06116  0.43884  0.06116  1.0000
  Hg  Hg4       1.0  0.18884  0.81116  0.18884  1.0000
  Hg  Hg5       1.0  0.12500  0.62500  0.62500  1.0000
  Hg  Hg6       1.0  0.62500  0.62500  0.12500  1.0000
  Hg  Hg7       1.0  0.62500  0.62500  0.62500  1.0000
  Hg  Hg8       1.0  0.62500  0.12500  0.62500  1.0000
