data_image0
_chemical_formula_structural       Pd2C29
_chemical_formula_sum              "Pd2 C29"
_cell_length_a       7.90722
_cell_length_b       7.90722
_cell_length_c       7.90722
_cell_angle_alpha    144.105
_cell_angle_beta     105.34
_cell_angle_gamma    85.7195

_space_group_name_H-M_alt    "P 1"
_space_group_IT_number       1

loop_
  _space_group_symop_operation_xyz
  'x, y, z'

loop_
  _atom_site_type_symbol
  _atom_site_label
  _atom_site_symmetry_multiplicity
  _atom_site_fract_x
  _atom_site_fract_y
  _atom_site_fract_z
  _atom_site_occupancy
  Pd  Pd1       1.0  0.13553  0.50000  0.63553  1.0000
  Pd  Pd2       1.0  0.37677  0.00000  0.37677  1.0000
  C   C1        1.0  0.65033  0.50000  0.15033  1.0000
  C   C2        1.0  0.52785  0.84488  0.68296  1.0000
  C   C3        1.0  0.69935  0.61881  0.08054  1.0000
  C   C4        1.0  0.46173  0.38119  0.08054  1.0000
  C   C5        1.0  0.97077  0.14516  0.82561  1.0000
  C   C6        1.0  0.68044  0.85484  0.82561  1.0000
  C   C7        1.0  0.42190  0.48960  0.64327  1.0000
  C   C8        1.0  0.15366  0.22137  0.64327  1.0000
  C   C9        1.0  0.43033  0.35931  0.36892  1.0000
  C   C10       1.0  0.00961  0.93859  0.36892  1.0000
  C   C11       1.0  0.15366  0.51040  0.93229  1.0000
  C   C12       1.0  0.42190  0.77863  0.93229  1.0000
  C   C13       1.0  0.00961  0.64069  0.07102  1.0000
  C   C14       1.0  0.43033  0.06141  0.07102  1.0000
  C   C15       1.0  0.49202  0.57225  0.91977  1.0000
  C   C16       1.0  0.34752  0.42775  0.91977  1.0000
  C   C17       1.0  0.05763  0.06003  0.99760  1.0000
  C   C18       1.0  0.93757  0.93997  0.99760  1.0000
  C   C19       1.0  0.83370  0.46099  0.90401  1.0000
  C   C20       1.0  0.44302  0.07032  0.90401  1.0000
  C   C21       1.0  0.44302  0.53901  0.37271  1.0000
  C   C22       1.0  0.83370  0.92968  0.37271  1.0000
  C   C23       1.0  0.04516  0.34295  0.14928  1.0000
  C   C24       1.0  0.80634  0.10412  0.14928  1.0000
  C   C25       1.0  0.80634  0.65705  0.70221  1.0000
  C   C26       1.0  0.04516  0.89588  0.70221  1.0000
  C   C27       1.0  0.05913  0.60252  0.45661  1.0000
  C   C28       1.0  0.85409  0.39748  0.45661  1.0000
  C   C29       1.0  0.83808  0.15512  0.68296  1.0000
