data_image0
_chemical_formula_structural       Pd8C20
_chemical_formula_sum              "Pd8 C20"
_cell_length_a       10.263
_cell_length_b       10.263
_cell_length_c       6.09425
_cell_angle_alpha    50.4258
_cell_angle_beta     50.4258
_cell_angle_gamma    34.0698

_space_group_name_H-M_alt    "P 1"
_space_group_IT_number       1

loop_
  _space_group_symop_operation_xyz
  'x, y, z'

loop_
  _atom_site_type_symbol
  _atom_site_label
  _atom_site_symmetry_multiplicity
  _atom_site_fract_x
  _atom_site_fract_y
  _atom_site_fract_z
  _atom_site_occupancy
  Pd  Pd1       1.0  0.97680  0.85495  0.22571  1.0000
  Pd  Pd2       1.0  0.14505  0.02320  0.27429  1.0000
  Pd  Pd3       1.0  0.02320  0.14505  0.77429  1.0000
  Pd  Pd4       1.0  0.85495  0.97680  0.72571  1.0000
  Pd  Pd5       1.0  0.50560  0.32065  0.02859  1.0000
  Pd  Pd6       1.0  0.67935  0.49440  0.47141  1.0000
  Pd  Pd7       1.0  0.49440  0.67935  0.97141  1.0000
  Pd  Pd8       1.0  0.32065  0.50560  0.52859  1.0000
  C   C1        1.0  0.80513  0.29305  0.11204  1.0000
  C   C2        1.0  0.70695  0.19487  0.38796  1.0000
  C   C3        1.0  0.19487  0.70695  0.88796  1.0000
  C   C4        1.0  0.29305  0.80513  0.61204  1.0000
  C   C5        1.0  0.40535  0.08253  0.92780  1.0000
  C   C6        1.0  0.91747  0.59465  0.57220  1.0000
  C   C7        1.0  0.59465  0.91747  0.07220  1.0000
  C   C8        1.0  0.08253  0.40535  0.42780  1.0000
  C   C9        1.0  0.94572  0.50357  0.87816  1.0000
  C   C10       1.0  0.49643  0.05428  0.62184  1.0000
  C   C11       1.0  0.05428  0.49643  0.12184  1.0000
  C   C12       1.0  0.50357  0.94572  0.37816  1.0000
  C   C13       1.0  0.81265  0.66404  0.06584  1.0000
  C   C14       1.0  0.33596  0.18735  0.43416  1.0000
  C   C15       1.0  0.18735  0.33596  0.93416  1.0000
  C   C16       1.0  0.66404  0.81265  0.56584  1.0000
  C   C17       1.0  0.15394  0.60517  0.88784  1.0000
  C   C18       1.0  0.39483  0.84606  0.61216  1.0000
  C   C19       1.0  0.84606  0.39483  0.11216  1.0000
  C   C20       1.0  0.60517  0.15394  0.38784  1.0000
