data_image0
_chemical_formula_structural       C4Pd4
_chemical_formula_sum              "C4 Pd4"
_cell_length_a       4.66749
_cell_length_b       4.66749
_cell_length_c       19.1983
_cell_angle_alpha    90
_cell_angle_beta     90
_cell_angle_gamma    113.502

_space_group_name_H-M_alt    "P 1"
_space_group_IT_number       1

loop_
  _space_group_symop_operation_xyz
  'x, y, z'

loop_
  _atom_site_type_symbol
  _atom_site_label
  _atom_site_symmetry_multiplicity
  _atom_site_fract_x
  _atom_site_fract_y
  _atom_site_fract_z
  _atom_site_occupancy
  C   C1        1.0  0.83385  0.00127  0.75000  1.0000
  C   C2        1.0  0.16615  0.99873  0.25000  1.0000
  C   C3        1.0  0.99873  0.16615  0.25000  1.0000
  C   C4        1.0  0.00127  0.83385  0.75000  1.0000
  Pd  Pd1       1.0  0.74239  0.37314  0.75000  1.0000
  Pd  Pd2       1.0  0.25761  0.62686  0.25000  1.0000
  Pd  Pd3       1.0  0.62686  0.25761  0.25000  1.0000
  Pd  Pd4       1.0  0.37314  0.74239  0.75000  1.0000
