data_image0
_chemical_formula_structural       PdC3
_chemical_formula_sum              "Pd1 C3"
_cell_length_a       3.56205
_cell_length_b       3.56205
_cell_length_c       3.56205
_cell_angle_alpha    91.9073
_cell_angle_beta     91.9073
_cell_angle_gamma    91.9073

_space_group_name_H-M_alt    "P 1"
_space_group_IT_number       1

loop_
  _space_group_symop_operation_xyz
  'x, y, z'

loop_
  _atom_site_type_symbol
  _atom_site_label
  _atom_site_symmetry_multiplicity
  _atom_site_fract_x
  _atom_site_fract_y
  _atom_site_fract_z
  _atom_site_occupancy
  Pd  Pd1       1.0  0.12349  0.12349  0.12349  1.0000
  C   C1        1.0  0.64653  0.36499  0.36499  1.0000
  C   C2        1.0  0.36499  0.64653  0.36499  1.0000
  C   C3        1.0  0.36499  0.36499  0.64653  1.0000
