data_image0
_chemical_formula_structural       Pd2Hg8
_chemical_formula_sum              "Pd2 Hg8"
_cell_length_a       7.77728
_cell_length_b       7.77728
_cell_length_c       7.77728
_cell_angle_alpha    130.911
_cell_angle_beta     130.911
_cell_angle_gamma    71.9549

_space_group_name_H-M_alt    "P 1"
_space_group_IT_number       1

loop_
  _space_group_symop_operation_xyz
  'x, y, z'

loop_
  _atom_site_type_symbol
  _atom_site_label
  _atom_site_symmetry_multiplicity
  _atom_site_fract_x
  _atom_site_fract_y
  _atom_site_fract_z
  _atom_site_occupancy
  Pd  Pd1       1.0  0.00000  0.00000  0.00000  1.0000
  Pd  Pd2       1.0  0.50000  0.50000  0.00000  1.0000
  Hg  Hg1       1.0  0.88339  0.88339  0.49994  1.0000
  Hg  Hg2       1.0  0.61655  0.61655  0.49994  1.0000
  Hg  Hg3       1.0  0.11661  0.11661  0.50006  1.0000
  Hg  Hg4       1.0  0.61655  0.11661  1.00000  1.0000
  Hg  Hg5       1.0  0.38345  0.38345  0.50006  1.0000
  Hg  Hg6       1.0  0.88339  0.38345  1.00000  1.0000
  Hg  Hg7       1.0  0.38345  0.88339  0.00000  1.0000
  Hg  Hg8       1.0  0.11661  0.61655  0.00000  1.0000
