data_image0
_chemical_formula_structural       Pd6C24
_chemical_formula_sum              "Pd6 C24"
_cell_length_a       7.0256
_cell_length_b       7.0256
_cell_length_c       8.53075
_cell_angle_alpha    63.85
_cell_angle_beta     63.85
_cell_angle_gamma    70.7519

_space_group_name_H-M_alt    "P 1"
_space_group_IT_number       1

loop_
  _space_group_symop_operation_xyz
  'x, y, z'

loop_
  _atom_site_type_symbol
  _atom_site_label
  _atom_site_symmetry_multiplicity
  _atom_site_fract_x
  _atom_site_fract_y
  _atom_site_fract_z
  _atom_site_occupancy
  Pd  Pd1       1.0  0.88176  0.11824  0.75000  1.0000
  Pd  Pd2       1.0  0.11824  0.88176  0.25000  1.0000
  Pd  Pd3       1.0  0.14084  0.52719  0.69594  1.0000
  Pd  Pd4       1.0  0.47281  0.85916  0.80406  1.0000
  Pd  Pd5       1.0  0.85916  0.47281  0.30406  1.0000
  Pd  Pd6       1.0  0.52719  0.14084  0.19594  1.0000
  C   C1        1.0  0.34237  0.17881  0.47420  1.0000
  C   C2        1.0  0.82119  0.65763  0.02580  1.0000
  C   C3        1.0  0.65763  0.82119  0.52580  1.0000
  C   C4        1.0  0.17881  0.34237  0.97420  1.0000
  C   C5        1.0  0.82608  0.43351  0.55849  1.0000
  C   C6        1.0  0.56649  0.17392  0.94151  1.0000
  C   C7        1.0  0.55563  0.44437  0.25000  1.0000
  C   C8        1.0  0.44437  0.55563  0.75000  1.0000
  C   C9        1.0  0.35164  0.40923  0.39539  1.0000
  C   C10       1.0  0.59077  0.64836  0.10461  1.0000
  C   C11       1.0  0.64836  0.59077  0.60461  1.0000
  C   C12       1.0  0.40923  0.35164  0.89539  1.0000
  C   C13       1.0  0.98009  0.77357  0.14029  1.0000
  C   C14       1.0  0.22643  0.01991  0.35971  1.0000
  C   C15       1.0  0.01991  0.22643  0.85971  1.0000
  C   C16       1.0  0.77357  0.98009  0.64029  1.0000
  C   C17       1.0  0.00000  0.50000  0.00000  1.0000
  C   C18       1.0  0.50000  0.00000  0.50000  1.0000
  C   C19       1.0  0.07929  0.16661  0.00818  1.0000
  C   C20       1.0  0.83339  0.92071  0.49182  1.0000
  C   C21       1.0  0.92071  0.83339  0.99182  1.0000
  C   C22       1.0  0.16661  0.07929  0.50818  1.0000
  C   C23       1.0  0.43351  0.82608  0.05849  1.0000
  C   C24       1.0  0.17392  0.56649  0.44151  1.0000
