data_image0
_chemical_formula_structural       PdC8
_chemical_formula_sum              "Pd1 C8"
_cell_length_a       7.69254
_cell_length_b       7.69254
_cell_length_c       7.69254
_cell_angle_alpha    119.487
_cell_angle_beta     119.487
_cell_angle_gamma    90.8906

_space_group_name_H-M_alt    "P 1"
_space_group_IT_number       1

loop_
  _space_group_symop_operation_xyz
  'x, y, z'

loop_
  _atom_site_type_symbol
  _atom_site_label
  _atom_site_symmetry_multiplicity
  _atom_site_fract_x
  _atom_site_fract_y
  _atom_site_fract_z
  _atom_site_occupancy
  Pd  Pd1       1.0  0.00000  0.00000  0.00000  1.0000
  C   C1        1.0  0.44074  0.44074  0.00000  1.0000
  C   C2        1.0  0.55926  0.55926  0.00000  1.0000
  C   C3        1.0  0.68987  0.18987  0.50000  1.0000
  C   C4        1.0  0.81013  0.31013  0.50000  1.0000
  C   C5        1.0  0.10122  0.29699  0.19577  1.0000
  C   C6        1.0  0.10122  0.90545  0.80423  1.0000
  C   C7        1.0  0.70301  0.89878  0.80423  1.0000
  C   C8        1.0  0.09455  0.89878  0.19577  1.0000
