data_image0
_chemical_formula_structural       PdC4
_chemical_formula_sum              "Pd1 C4"
_cell_length_a       3.68454
_cell_length_b       3.68454
_cell_length_c       5.21738
_cell_angle_alpha    64.0884
_cell_angle_beta     64.0884
_cell_angle_gamma    67.7664

_space_group_name_H-M_alt    "P 1"
_space_group_IT_number       1

loop_
  _space_group_symop_operation_xyz
  'x, y, z'

loop_
  _atom_site_type_symbol
  _atom_site_label
  _atom_site_symmetry_multiplicity
  _atom_site_fract_x
  _atom_site_fract_y
  _atom_site_fract_z
  _atom_site_occupancy
  Pd  Pd1       1.0  0.00000  0.00000  0.00000  1.0000
  C   C1        1.0  0.85165  0.51374  0.63955  1.0000
  C   C2        1.0  0.48626  0.14835  0.36045  1.0000
  C   C3        1.0  0.14835  0.48626  0.36045  1.0000
  C   C4        1.0  0.51374  0.85165  0.63955  1.0000
