data_image0
_chemical_formula_structural       Pd4C20
_chemical_formula_sum              "Pd4 C20"
_cell_length_a       7.56314
_cell_length_b       4.52447
_cell_length_c       6.31877
_cell_angle_alpha    90.9495
_cell_angle_beta     90
_cell_angle_gamma    90

_space_group_name_H-M_alt    "P 1"
_space_group_IT_number       1

loop_
  _space_group_symop_operation_xyz
  'x, y, z'

loop_
  _atom_site_type_symbol
  _atom_site_label
  _atom_site_symmetry_multiplicity
  _atom_site_fract_x
  _atom_site_fract_y
  _atom_site_fract_z
  _atom_site_occupancy
  Pd  Pd1       1.0  0.25000  0.09808  0.98267  1.0000
  Pd  Pd2       1.0  0.75000  0.90192  0.01733  1.0000
  Pd  Pd3       1.0  0.25000  0.10014  0.48192  1.0000
  Pd  Pd4       1.0  0.75000  0.89986  0.51808  1.0000
  C   C1        1.0  0.58135  0.41055  0.74604  1.0000
  C   C2        1.0  0.08135  0.58945  0.25396  1.0000
  C   C3        1.0  0.41865  0.58945  0.25396  1.0000
  C   C4        1.0  0.91865  0.41055  0.74604  1.0000
  C   C5        1.0  0.56973  0.09675  0.23486  1.0000
  C   C6        1.0  0.06973  0.90325  0.76514  1.0000
  C   C7        1.0  0.43027  0.90325  0.76514  1.0000
  C   C8        1.0  0.93027  0.09675  0.23486  1.0000
  C   C9        1.0  0.58131  0.41230  0.24623  1.0000
  C   C10       1.0  0.08131  0.58770  0.75377  1.0000
  C   C11       1.0  0.41869  0.58770  0.75377  1.0000
  C   C12       1.0  0.91869  0.41230  0.24623  1.0000
  C   C13       1.0  0.25000  0.44387  0.75412  1.0000
  C   C14       1.0  0.75000  0.55613  0.24588  1.0000
  C   C15       1.0  0.56970  0.09494  0.73556  1.0000
  C   C16       1.0  0.06970  0.90506  0.26444  1.0000
  C   C17       1.0  0.43030  0.90506  0.26444  1.0000
  C   C18       1.0  0.93030  0.09494  0.73556  1.0000
  C   C19       1.0  0.25000  0.44606  0.25392  1.0000
  C   C20       1.0  0.75000  0.55394  0.74608  1.0000
