data_image0
_chemical_formula_structural       Pd16C28
_chemical_formula_sum              "Pd16 C28"
_cell_length_a       12.4038
_cell_length_b       3.12289
_cell_length_c       13.0334
_cell_angle_alpha    81.952
_cell_angle_beta     90
_cell_angle_gamma    90

_space_group_name_H-M_alt    "P 1"
_space_group_IT_number       1

loop_
  _space_group_symop_operation_xyz
  'x, y, z'

loop_
  _atom_site_type_symbol
  _atom_site_label
  _atom_site_symmetry_multiplicity
  _atom_site_fract_x
  _atom_site_fract_y
  _atom_site_fract_z
  _atom_site_occupancy
  Pd  Pd1       1.0  0.52245  0.23000  0.39616  1.0000
  Pd  Pd2       1.0  0.97755  0.23000  0.89616  1.0000
  Pd  Pd3       1.0  0.47755  0.77000  0.60384  1.0000
  Pd  Pd4       1.0  0.02245  0.77000  0.10384  1.0000
  Pd  Pd5       1.0  0.56952  0.22891  0.06622  1.0000
  Pd  Pd6       1.0  0.93048  0.22891  0.56622  1.0000
  Pd  Pd7       1.0  0.43048  0.77109  0.93378  1.0000
  Pd  Pd8       1.0  0.06952  0.77109  0.43378  1.0000
  Pd  Pd9       1.0  0.32709  0.84991  0.33838  1.0000
  Pd  Pd10      1.0  0.17291  0.84991  0.83838  1.0000
  Pd  Pd11      1.0  0.67291  0.15009  0.66162  1.0000
  Pd  Pd12      1.0  0.82709  0.15009  0.16162  1.0000
  Pd  Pd13      1.0  0.25850  0.26155  0.52114  1.0000
  Pd  Pd14      1.0  0.24150  0.26155  0.02114  1.0000
  Pd  Pd15      1.0  0.74150  0.73845  0.47886  1.0000
  Pd  Pd16      1.0  0.75850  0.73845  0.97886  1.0000
  C   C1        1.0  0.13419  0.26149  0.15121  1.0000
  C   C2        1.0  0.36581  0.26149  0.65121  1.0000
  C   C3        1.0  0.86581  0.73851  0.84879  1.0000
  C   C4        1.0  0.63419  0.73851  0.34879  1.0000
  C   C5        1.0  0.36465  0.69218  0.07727  1.0000
  C   C6        1.0  0.13535  0.69218  0.57727  1.0000
  C   C7        1.0  0.63535  0.30782  0.92273  1.0000
  C   C8        1.0  0.86465  0.30782  0.42273  1.0000
  C   C9        1.0  0.41536  0.39227  0.26719  1.0000
  C   C10       1.0  0.08464  0.39227  0.76719  1.0000
  C   C11       1.0  0.58464  0.60773  0.73281  1.0000
  C   C12       1.0  0.91536  0.60773  0.23281  1.0000
  C   C13       1.0  0.16467  0.30400  0.34848  1.0000
  C   C14       1.0  0.33533  0.30400  0.84848  1.0000
  C   C15       1.0  0.83533  0.69600  0.65152  1.0000
  C   C16       1.0  0.66467  0.69600  0.15152  1.0000
  C   C17       1.0  0.40632  0.53869  0.16741  1.0000
  C   C18       1.0  0.09368  0.53869  0.66741  1.0000
  C   C19       1.0  0.59368  0.46131  0.83259  1.0000
  C   C20       1.0  0.90632  0.46131  0.33259  1.0000
  C   C21       1.0  0.15963  0.26891  0.24983  1.0000
  C   C22       1.0  0.34037  0.26891  0.74983  1.0000
  C   C23       1.0  0.84037  0.73109  0.75017  1.0000
  C   C24       1.0  0.65963  0.73109  0.25017  1.0000
  C   C25       1.0  0.63501  0.20861  0.50987  1.0000
  C   C26       1.0  0.86499  0.20861  0.00987  1.0000
  C   C27       1.0  0.36499  0.79139  0.49013  1.0000
  C   C28       1.0  0.13501  0.79139  0.99013  1.0000
