data_image0
_chemical_formula_structural       Pd2C30
_chemical_formula_sum              "Pd2 C30"
_cell_length_a       7.10144
_cell_length_b       7.10144
_cell_length_c       7.10144
_cell_angle_alpha    136.839
_cell_angle_beta     92.5714
_cell_angle_gamma    103.044

_space_group_name_H-M_alt    "P 1"
_space_group_IT_number       1

loop_
  _space_group_symop_operation_xyz
  'x, y, z'

loop_
  _atom_site_type_symbol
  _atom_site_label
  _atom_site_symmetry_multiplicity
  _atom_site_fract_x
  _atom_site_fract_y
  _atom_site_fract_z
  _atom_site_occupancy
  Pd  Pd1       1.0  0.87376  0.25000  0.62376  1.0000
  Pd  Pd2       1.0  0.12624  0.75000  0.37624  1.0000
  C   C1        1.0  0.56021  0.25000  0.31021  1.0000
  C   C2        1.0  0.43979  0.75000  0.68979  1.0000
  C   C3        1.0  0.38189  0.34549  0.03640  1.0000
  C   C4        1.0  0.61811  0.65451  0.96360  1.0000
  C   C5        1.0  0.19091  0.15451  0.03640  1.0000
  C   C6        1.0  0.80909  0.84549  0.96360  1.0000
  C   C7        1.0  0.21358  0.33731  0.87627  1.0000
  C   C8        1.0  0.78642  0.66269  0.12373  1.0000
  C   C9        1.0  0.03896  0.16269  0.87627  1.0000
  C   C10       1.0  0.96104  0.83731  0.12373  1.0000
  C   C11       1.0  0.77993  0.36565  0.41427  1.0000
  C   C12       1.0  0.22007  0.63434  0.58573  1.0000
  C   C13       1.0  0.54862  0.13434  0.41427  1.0000
  C   C14       1.0  0.45138  0.86565  0.58573  1.0000
  C   C15       1.0  0.25056  0.65535  0.05358  1.0000
  C   C16       1.0  0.74944  0.80302  0.40479  1.0000
  C   C17       1.0  0.89824  0.84465  0.59521  1.0000
  C   C18       1.0  0.10176  0.69698  0.94642  1.0000
  C   C19       1.0  0.74944  0.34465  0.94642  1.0000
  C   C20       1.0  0.25056  0.19698  0.59521  1.0000
  C   C21       1.0  0.10176  0.15535  0.40479  1.0000
  C   C22       1.0  0.89824  0.30302  0.05358  1.0000
  C   C23       1.0  0.51679  0.69673  0.31527  1.0000
  C   C24       1.0  0.48321  0.79848  0.17994  1.0000
  C   C25       1.0  0.11853  0.80327  0.82006  1.0000
  C   C26       1.0  0.88147  0.70152  0.68473  1.0000
  C   C27       1.0  0.48321  0.30327  0.68473  1.0000
  C   C28       1.0  0.51679  0.20152  0.82006  1.0000
  C   C29       1.0  0.88147  0.19673  0.17994  1.0000
  C   C30       1.0  0.11853  0.29848  0.31527  1.0000
