data_image0
_chemical_formula_structural       Pd8Hg24
_chemical_formula_sum              "Pd8 Hg24"
_cell_length_a       18.1452
_cell_length_b       18.1452
_cell_length_c       18.1452
_cell_angle_alpha    158.88
_cell_angle_beta     158.88
_cell_angle_gamma    30.0424

_space_group_name_H-M_alt    "P 1"
_space_group_IT_number       1

loop_
  _space_group_symop_operation_xyz
  'x, y, z'

loop_
  _atom_site_type_symbol
  _atom_site_label
  _atom_site_symmetry_multiplicity
  _atom_site_fract_x
  _atom_site_fract_y
  _atom_site_fract_z
  _atom_site_occupancy
  Pd  Pd1       1.0  0.45855  0.45855  0.00000  1.0000
  Pd  Pd2       1.0  0.79145  0.29145  0.50000  1.0000
  Pd  Pd3       1.0  0.04145  0.04145  0.00000  1.0000
  Pd  Pd4       1.0  0.20855  0.70855  0.50000  1.0000
  Pd  Pd5       1.0  0.29145  0.79145  0.50000  1.0000
  Pd  Pd6       1.0  0.95855  0.95855  0.00000  1.0000
  Pd  Pd7       1.0  0.70855  0.20855  0.50000  1.0000
  Pd  Pd8       1.0  0.54145  0.54145  0.00000  1.0000
  Hg  Hg1       1.0  0.41616  0.41616  0.33232  1.0000
  Hg  Hg2       1.0  0.08384  0.08384  0.66768  1.0000
  Hg  Hg3       1.0  0.83384  0.66616  0.50000  1.0000
  Hg  Hg4       1.0  0.16616  0.33384  0.50000  1.0000
  Hg  Hg5       1.0  0.33384  0.83384  0.16768  1.0000
  Hg  Hg6       1.0  0.66616  0.16616  0.83232  1.0000
  Hg  Hg7       1.0  0.91616  0.58384  0.00000  1.0000
  Hg  Hg8       1.0  0.58384  0.91616  0.00000  1.0000
  Hg  Hg9       1.0  0.98351  0.34508  0.99725  1.0000
  Hg  Hg10      1.0  0.34783  0.98626  0.00275  1.0000
  Hg  Hg11      1.0  0.26649  0.76374  0.86156  1.0000
  Hg  Hg12      1.0  0.90217  0.40492  0.13844  1.0000
  Hg  Hg13      1.0  0.15492  0.51649  0.00275  1.0000
  Hg  Hg14      1.0  0.51374  0.15217  0.99725  1.0000
  Hg  Hg15      1.0  0.73626  0.23351  0.13844  1.0000
  Hg  Hg16      1.0  0.09508  0.59783  0.86156  1.0000
  Hg  Hg17      1.0  0.76649  0.90492  0.50275  1.0000
  Hg  Hg18      1.0  0.40217  0.26374  0.49725  1.0000
  Hg  Hg19      1.0  0.48351  0.48626  0.63844  1.0000
  Hg  Hg20      1.0  0.84783  0.84508  0.36156  1.0000
  Hg  Hg21      1.0  0.59508  0.73351  0.49725  1.0000
  Hg  Hg22      1.0  0.23626  0.09783  0.50275  1.0000
  Hg  Hg23      1.0  0.01374  0.01649  0.36156  1.0000
  Hg  Hg24      1.0  0.65492  0.65217  0.63844  1.0000
