data_image0
_chemical_formula_structural       Pd4Hg8
_chemical_formula_sum              "Pd4 Hg8"
_cell_length_a       7.23291
_cell_length_b       7.23623
_cell_length_c       14.6846
_cell_angle_alpha    68.4798
_cell_angle_beta     90
_cell_angle_gamma    90

_space_group_name_H-M_alt    "P 1"
_space_group_IT_number       1

loop_
  _space_group_symop_operation_xyz
  'x, y, z'

loop_
  _atom_site_type_symbol
  _atom_site_label
  _atom_site_symmetry_multiplicity
  _atom_site_fract_x
  _atom_site_fract_y
  _atom_site_fract_z
  _atom_site_occupancy
  Pd  Pd1       1.0  0.24855  0.29229  0.94241  1.0000
  Pd  Pd2       1.0  0.24855  0.70771  0.55759  1.0000
  Pd  Pd3       1.0  0.75145  0.70771  0.05759  1.0000
  Pd  Pd4       1.0  0.75145  0.29229  0.44241  1.0000
  Hg  Hg1       1.0  0.00000  0.00000  0.00000  1.0000
  Hg  Hg2       1.0  0.00000  0.00000  0.50000  1.0000
  Hg  Hg3       1.0  0.29092  0.50000  0.75000  1.0000
  Hg  Hg4       1.0  0.70908  0.50000  0.25000  1.0000
  Hg  Hg5       1.0  0.50000  0.00000  0.00000  1.0000
  Hg  Hg6       1.0  0.50000  0.00000  0.50000  1.0000
  Hg  Hg7       1.0  0.00000  0.50000  0.00000  1.0000
  Hg  Hg8       1.0  0.00000  0.50000  0.50000  1.0000
