data_image0
_chemical_formula_structural       Pd2C10
_chemical_formula_sum              "Pd2 C10"
_cell_length_a       3.49761
_cell_length_b       3.49761
_cell_length_c       10.3554
_cell_angle_alpha    90
_cell_angle_beta     90
_cell_angle_gamma    90

_space_group_name_H-M_alt    "P 1"
_space_group_IT_number       1

loop_
  _space_group_symop_operation_xyz
  'x, y, z'

loop_
  _atom_site_type_symbol
  _atom_site_label
  _atom_site_symmetry_multiplicity
  _atom_site_fract_x
  _atom_site_fract_y
  _atom_site_fract_z
  _atom_site_occupancy
  Pd  Pd1       1.0  0.50000  0.00000  0.45828  1.0000
  Pd  Pd2       1.0  0.00000  0.50000  0.54172  1.0000
  C   C1        1.0  0.50000  0.00000  0.92535  1.0000
  C   C2        1.0  0.20566  0.99979  0.79730  1.0000
  C   C3        1.0  0.00021  0.20566  0.20270  1.0000
  C   C4        1.0  0.49979  0.29434  0.79730  1.0000
  C   C5        1.0  0.29434  0.50021  0.20270  1.0000
  C   C6        1.0  0.00000  0.50000  0.07465  1.0000
  C   C7        1.0  0.70566  0.49979  0.20270  1.0000
  C   C8        1.0  0.50021  0.70566  0.79730  1.0000
  C   C9        1.0  0.99979  0.79434  0.20270  1.0000
  C   C10       1.0  0.79434  0.00021  0.79730  1.0000
