data_image0
_chemical_formula_structural       Pd4C18
_chemical_formula_sum              "Pd4 C18"
_cell_length_a       3.96192
_cell_length_b       3.96192
_cell_length_c       16.0745
_cell_angle_alpha    90
_cell_angle_beta     90
_cell_angle_gamma    120

_space_group_name_H-M_alt    "P 1"
_space_group_IT_number       1

loop_
  _space_group_symop_operation_xyz
  'x, y, z'

loop_
  _atom_site_type_symbol
  _atom_site_label
  _atom_site_symmetry_multiplicity
  _atom_site_fract_x
  _atom_site_fract_y
  _atom_site_fract_z
  _atom_site_occupancy
  Pd  Pd1       1.0  0.00000  0.00000  0.38964  1.0000
  Pd  Pd2       1.0  0.00000  0.00000  0.11119  1.0000
  Pd  Pd3       1.0  0.00000  0.00000  0.61119  1.0000
  Pd  Pd4       1.0  0.00000  0.00000  0.88964  1.0000
  C   C1        1.0  1.00000  0.50051  0.54663  1.0000
  C   C2        1.0  0.49949  0.00000  0.04663  1.0000
  C   C3        1.0  0.00000  0.49949  0.04663  1.0000
  C   C4        1.0  0.49949  0.49949  0.54663  1.0000
  C   C5        1.0  0.21038  0.21038  0.24935  1.0000
  C   C6        1.0  0.50051  1.00000  0.54663  1.0000
  C   C7        1.0  0.49861  0.49861  0.95379  1.0000
  C   C8        1.0  0.50051  0.50051  0.04663  1.0000
  C   C9        1.0  0.21038  1.00000  0.74935  1.0000
  C   C10       1.0  0.49861  0.00000  0.45379  1.0000
  C   C11       1.0  0.78962  0.78962  0.74935  1.0000
  C   C12       1.0  0.50139  0.50139  0.45379  1.0000
  C   C13       1.0  1.00000  0.50139  0.95379  1.0000
  C   C14       1.0  0.00000  0.78962  0.24935  1.0000
  C   C15       1.0  0.50139  1.00000  0.95379  1.0000
  C   C16       1.0  0.78962  0.00000  0.24935  1.0000
  C   C17       1.0  0.00000  0.49861  0.45379  1.0000
  C   C18       1.0  1.00000  0.21038  0.74935  1.0000
