data_image0
_chemical_formula_structural       Pd4C20
_chemical_formula_sum              "Pd4 C20"
_cell_length_a       4.91645
_cell_length_b       4.81993
_cell_length_c       9.2623
_cell_angle_alpha    90
_cell_angle_beta     90
_cell_angle_gamma    90

_space_group_name_H-M_alt    "P 1"
_space_group_IT_number       1

loop_
  _space_group_symop_operation_xyz
  'x, y, z'

loop_
  _atom_site_type_symbol
  _atom_site_label
  _atom_site_symmetry_multiplicity
  _atom_site_fract_x
  _atom_site_fract_y
  _atom_site_fract_z
  _atom_site_occupancy
  Pd  Pd1       1.0  0.50000  0.01545  0.36712  1.0000
  Pd  Pd2       1.0  0.50000  0.98455  0.86712  1.0000
  Pd  Pd3       1.0  0.00000  0.76297  0.44879  1.0000
  Pd  Pd4       1.0  0.00000  0.23703  0.94879  1.0000
  C   C1        1.0  0.50000  0.32416  0.02692  1.0000
  C   C2        1.0  0.50000  0.67584  0.52692  1.0000
  C   C3        1.0  0.50000  0.32457  0.20759  1.0000
  C   C4        1.0  0.50000  0.67543  0.70759  1.0000
  C   C5        1.0  0.24257  0.30911  0.60932  1.0000
  C   C6        1.0  0.75743  0.69089  0.10932  1.0000
  C   C7        1.0  0.75743  0.30911  0.60932  1.0000
  C   C8        1.0  0.24257  0.69089  0.10932  1.0000
  C   C9        1.0  0.24316  0.50985  0.71931  1.0000
  C   C10       1.0  0.75684  0.49015  0.21931  1.0000
  C   C11       1.0  0.75684  0.50985  0.71931  1.0000
  C   C12       1.0  0.24316  0.49015  0.21931  1.0000
  C   C13       1.0  0.00000  0.60967  0.78595  1.0000
  C   C14       1.0  0.00000  0.39033  0.28595  1.0000
  C   C15       1.0  0.00000  0.84543  0.88806  1.0000
  C   C16       1.0  0.00000  0.15457  0.38806  1.0000
  C   C17       1.0  0.00000  0.79187  0.04546  1.0000
  C   C18       1.0  0.00000  0.20813  0.54546  1.0000
  C   C19       1.0  0.50000  0.34249  0.52456  1.0000
  C   C20       1.0  0.50000  0.65751  0.02456  1.0000
