data_image0
_chemical_formula_structural       C2Pd2
_chemical_formula_sum              "C2 Pd2"
_cell_length_a       4.39996
_cell_length_b       4.39996
_cell_length_c       4.39996
_cell_angle_alpha    136.141
_cell_angle_beta     77.7691
_cell_angle_gamma    119.393

_space_group_name_H-M_alt    "P 1"
_space_group_IT_number       1

loop_
  _space_group_symop_operation_xyz
  'x, y, z'

loop_
  _atom_site_type_symbol
  _atom_site_label
  _atom_site_symmetry_multiplicity
  _atom_site_fract_x
  _atom_site_fract_y
  _atom_site_fract_z
  _atom_site_occupancy
  C   C1        1.0  0.35203  0.35203  0.00000  1.0000
  C   C2        1.0  0.64797  0.64797  0.00000  1.0000
  Pd  Pd1       1.0  0.19609  0.00000  0.19609  1.0000
  Pd  Pd2       1.0  0.80391  1.00000  0.80391  1.0000
