data_image0
_chemical_formula_structural       Pd2C17
_chemical_formula_sum              "Pd2 C17"
_cell_length_a       7.09485
_cell_length_b       7.09485
_cell_length_c       7.09485
_cell_angle_alpha    48.8338
_cell_angle_beta     48.8338
_cell_angle_gamma    48.8338

_space_group_name_H-M_alt    "P 1"
_space_group_IT_number       1

loop_
  _space_group_symop_operation_xyz
  'x, y, z'

loop_
  _atom_site_type_symbol
  _atom_site_label
  _atom_site_symmetry_multiplicity
  _atom_site_fract_x
  _atom_site_fract_y
  _atom_site_fract_z
  _atom_site_occupancy
  Pd  Pd1       1.0  0.67561  0.67561  0.67561  1.0000
  Pd  Pd2       1.0  0.32439  0.32439  0.32439  1.0000
  C   C1        1.0  0.00000  0.00000  0.50000  1.0000
  C   C2        1.0  0.50000  0.00000  0.00000  1.0000
  C   C3        1.0  0.00000  0.50000  0.00000  1.0000
  C   C4        1.0  0.76617  0.23383  0.00000  1.0000
  C   C5        1.0  0.00000  0.76617  0.23383  1.0000
  C   C6        1.0  0.23383  1.00000  0.76617  1.0000
  C   C7        1.0  1.00000  0.23383  0.76617  1.0000
  C   C8        1.0  0.76617  0.00000  0.23383  1.0000
  C   C9        1.0  0.23383  0.76617  0.00000  1.0000
  C   C10       1.0  0.36643  0.36643  0.76135  1.0000
  C   C11       1.0  0.76135  0.36643  0.36643  1.0000
  C   C12       1.0  0.36643  0.76135  0.36643  1.0000
  C   C13       1.0  0.63357  0.63357  0.23865  1.0000
  C   C14       1.0  0.23865  0.63357  0.63357  1.0000
  C   C15       1.0  0.63357  0.23865  0.63357  1.0000
  C   C16       1.0  0.82283  0.82283  0.82283  1.0000
  C   C17       1.0  0.17717  0.17717  0.17717  1.0000
