data_image0
_chemical_formula_structural       Pd4C10
_chemical_formula_sum              "Pd4 C10"
_cell_length_a       5.19967
_cell_length_b       5.19967
_cell_length_c       5.8611
_cell_angle_alpha    90
_cell_angle_beta     90
_cell_angle_gamma    113.444

_space_group_name_H-M_alt    "P 1"
_space_group_IT_number       1

loop_
  _space_group_symop_operation_xyz
  'x, y, z'

loop_
  _atom_site_type_symbol
  _atom_site_label
  _atom_site_symmetry_multiplicity
  _atom_site_fract_x
  _atom_site_fract_y
  _atom_site_fract_z
  _atom_site_occupancy
  Pd  Pd1       1.0  0.75407  0.75407  0.00000  1.0000
  Pd  Pd2       1.0  0.75407  0.75407  0.50000  1.0000
  Pd  Pd3       1.0  0.24593  0.24593  0.50000  1.0000
  Pd  Pd4       1.0  0.24593  0.24593  0.00000  1.0000
  C   C1        1.0  0.94949  0.30069  0.75000  1.0000
  C   C2        1.0  0.42472  0.04245  0.75000  1.0000
  C   C3        1.0  0.81971  0.18029  0.25000  1.0000
  C   C4        1.0  0.18029  0.81971  0.75000  1.0000
  C   C5        1.0  0.04245  0.42472  0.25000  1.0000
  C   C6        1.0  0.95755  0.57528  0.75000  1.0000
  C   C7        1.0  0.30069  0.94949  0.25000  1.0000
  C   C8        1.0  0.57528  0.95755  0.25000  1.0000
  C   C9        1.0  0.69931  0.05051  0.75000  1.0000
  C   C10       1.0  0.05051  0.69931  0.25000  1.0000
