data_image0
_chemical_formula_structural       PdHg5
_chemical_formula_sum              "Pd1 Hg5"
_cell_length_a       7.30865
_cell_length_b       7.30865
_cell_length_c       7.30865
_cell_angle_alpha    154.699
_cell_angle_beta     114.589
_cell_angle_gamma    71.3259

_space_group_name_H-M_alt    "P 1"
_space_group_IT_number       1

loop_
  _space_group_symop_operation_xyz
  'x, y, z'

loop_
  _atom_site_type_symbol
  _atom_site_label
  _atom_site_symmetry_multiplicity
  _atom_site_fract_x
  _atom_site_fract_y
  _atom_site_fract_z
  _atom_site_occupancy
  Pd  Pd1       1.0  0.00000  0.00000  0.00000  1.0000
  Hg  Hg1       1.0  0.34976  0.64628  0.70348  1.0000
  Hg  Hg2       1.0  0.65024  0.35372  0.29652  1.0000
  Hg  Hg3       1.0  0.05721  0.35372  0.70348  1.0000
  Hg  Hg4       1.0  0.94279  0.64628  0.29652  1.0000
  Hg  Hg5       1.0  0.50000  1.00000  0.50000  1.0000
