data_image0
_chemical_formula_structural       C16Pd16
_chemical_formula_sum              "C16 Pd16"
_cell_length_a       8.4286
_cell_length_b       5.85924
_cell_length_c       9.16197
_cell_angle_alpha    90
_cell_angle_beta     90
_cell_angle_gamma    90

_space_group_name_H-M_alt    "P 1"
_space_group_IT_number       1

loop_
  _space_group_symop_operation_xyz
  'x, y, z'

loop_
  _atom_site_type_symbol
  _atom_site_label
  _atom_site_symmetry_multiplicity
  _atom_site_fract_x
  _atom_site_fract_y
  _atom_site_fract_z
  _atom_site_occupancy
  C   C1        1.0  0.27333  0.76622  0.05288  1.0000
  C   C2        1.0  0.22667  0.26622  0.44712  1.0000
  C   C3        1.0  0.72667  0.23378  0.55288  1.0000
  C   C4        1.0  0.77333  0.73378  0.94712  1.0000
  C   C5        1.0  0.72667  0.23378  0.94712  1.0000
  C   C6        1.0  0.77333  0.73378  0.55288  1.0000
  C   C7        1.0  0.27333  0.76622  0.44712  1.0000
  C   C8        1.0  0.22667  0.26622  0.05288  1.0000
  C   C9        1.0  0.73646  0.72675  0.08721  1.0000
  C   C10       1.0  0.76354  0.22675  0.41279  1.0000
  C   C11       1.0  0.26354  0.27325  0.58721  1.0000
  C   C12       1.0  0.23646  0.77325  0.91279  1.0000
  C   C13       1.0  0.26354  0.27325  0.91279  1.0000
  C   C14       1.0  0.23646  0.77325  0.58721  1.0000
  C   C15       1.0  0.73646  0.72675  0.41279  1.0000
  C   C16       1.0  0.76354  0.22675  0.08721  1.0000
  Pd  Pd1       1.0  0.36537  0.74550  0.25000  1.0000
  Pd  Pd2       1.0  0.13463  0.24550  0.25000  1.0000
  Pd  Pd3       1.0  0.63463  0.25450  0.75000  1.0000
  Pd  Pd4       1.0  0.86537  0.75450  0.75000  1.0000
  Pd  Pd5       1.0  0.74380  0.47637  0.25000  1.0000
  Pd  Pd6       1.0  0.75620  0.97637  0.25000  1.0000
  Pd  Pd7       1.0  0.25620  0.52363  0.75000  1.0000
  Pd  Pd8       1.0  0.24380  0.02363  0.75000  1.0000
  Pd  Pd9       1.0  0.01143  0.75429  0.02463  1.0000
  Pd  Pd10      1.0  0.48857  0.25429  0.47537  1.0000
  Pd  Pd11      1.0  0.98857  0.24571  0.52463  1.0000
  Pd  Pd12      1.0  0.51143  0.74571  0.97537  1.0000
  Pd  Pd13      1.0  0.98857  0.24571  0.97537  1.0000
  Pd  Pd14      1.0  0.51143  0.74571  0.52463  1.0000
  Pd  Pd15      1.0  0.01143  0.75429  0.47537  1.0000
  Pd  Pd16      1.0  0.48857  0.25429  0.02463  1.0000
