data_image0
_chemical_formula_structural       PdC28
_chemical_formula_sum              "Pd1 C28"
_cell_length_a       6.32712
_cell_length_b       6.32712
_cell_length_c       6.32712
_cell_angle_alpha    109.471
_cell_angle_beta     109.471
_cell_angle_gamma    109.471

_space_group_name_H-M_alt    "P 1"
_space_group_IT_number       1

loop_
  _space_group_symop_operation_xyz
  'x, y, z'

loop_
  _atom_site_type_symbol
  _atom_site_label
  _atom_site_symmetry_multiplicity
  _atom_site_fract_x
  _atom_site_fract_y
  _atom_site_fract_z
  _atom_site_occupancy
  Pd  Pd1       1.0  0.00000  0.00000  0.00000  1.0000
  C   C1        1.0  0.70044  0.00000  0.00000  1.0000
  C   C2        1.0  0.00000  0.70044  1.00000  1.0000
  C   C3        1.0  0.00000  0.00000  0.70044  1.0000
  C   C4        1.0  0.29956  0.29956  0.29956  1.0000
  C   C5        1.0  0.25312  0.74279  0.00000  1.0000
  C   C6        1.0  0.51033  0.25721  0.25721  1.0000
  C   C7        1.0  0.25312  0.00000  0.74279  1.0000
  C   C8        1.0  0.74279  0.25312  0.00000  1.0000
  C   C9        1.0  0.00000  0.25312  0.74279  1.0000
  C   C10       1.0  0.25721  0.51033  0.25721  1.0000
  C   C11       1.0  0.25721  0.25721  0.51033  1.0000
  C   C12       1.0  0.00000  0.74279  0.25312  1.0000
  C   C13       1.0  0.74279  0.00000  0.25312  1.0000
  C   C14       1.0  0.74688  0.74688  0.48967  1.0000
  C   C15       1.0  0.48967  0.74688  0.74688  1.0000
  C   C16       1.0  0.74688  0.48967  0.74688  1.0000
  C   C17       1.0  0.49624  0.23865  0.00000  1.0000
  C   C18       1.0  0.25759  0.76135  0.76135  1.0000
  C   C19       1.0  0.49624  0.00000  0.23865  1.0000
  C   C20       1.0  0.23865  0.49624  0.00000  1.0000
  C   C21       1.0  0.00000  0.49624  0.23865  1.0000
  C   C22       1.0  0.76135  0.25759  0.76135  1.0000
  C   C23       1.0  0.76135  0.76135  0.25759  1.0000
  C   C24       1.0  0.00000  0.23865  0.49624  1.0000
  C   C25       1.0  0.23865  0.00000  0.49624  1.0000
  C   C26       1.0  0.50376  0.50376  0.74241  1.0000
  C   C27       1.0  0.74241  0.50376  0.50376  1.0000
  C   C28       1.0  0.50376  0.74241  0.50376  1.0000
