data_image0
_chemical_formula_structural       Pd4C12
_chemical_formula_sum              "Pd4 C12"
_cell_length_a       5.1125
_cell_length_b       5.1125
_cell_length_c       6.56593
_cell_angle_alpha    81.714
_cell_angle_beta     81.714
_cell_angle_gamma    62.9109

_space_group_name_H-M_alt    "P 1"
_space_group_IT_number       1

loop_
  _space_group_symop_operation_xyz
  'x, y, z'

loop_
  _atom_site_type_symbol
  _atom_site_label
  _atom_site_symmetry_multiplicity
  _atom_site_fract_x
  _atom_site_fract_y
  _atom_site_fract_z
  _atom_site_occupancy
  Pd  Pd1       1.0  0.89765  0.89765  0.73928  1.0000
  Pd  Pd2       1.0  0.20277  0.20277  0.81787  1.0000
  Pd  Pd3       1.0  0.79723  0.79723  0.18213  1.0000
  Pd  Pd4       1.0  0.10235  0.10235  0.26072  1.0000
  C   C1        1.0  0.70700  0.25509  0.10963  1.0000
  C   C2        1.0  0.90490  0.46928  0.45022  1.0000
  C   C3        1.0  0.54422  0.54422  0.77744  1.0000
  C   C4        1.0  0.53072  0.09510  0.54978  1.0000
  C   C5        1.0  0.58002  0.58002  0.54249  1.0000
  C   C6        1.0  0.45578  0.45578  0.22256  1.0000
  C   C7        1.0  0.46928  0.90490  0.45022  1.0000
  C   C8        1.0  0.41998  0.41998  0.45751  1.0000
  C   C9        1.0  0.29300  0.74491  0.89037  1.0000
  C   C10       1.0  0.09510  0.53072  0.54978  1.0000
  C   C11       1.0  0.25509  0.70700  0.10963  1.0000
  C   C12       1.0  0.74491  0.29300  0.89037  1.0000
