data_image0
_chemical_formula_structural       PdC5
_chemical_formula_sum              "Pd1 C5"
_cell_length_a       4.42135
_cell_length_b       4.42135
_cell_length_c       4.42135
_cell_angle_alpha    137.641
_cell_angle_beta     104.94
_cell_angle_gamma    90.1864

_space_group_name_H-M_alt    "P 1"
_space_group_IT_number       1

loop_
  _space_group_symop_operation_xyz
  'x, y, z'

loop_
  _atom_site_type_symbol
  _atom_site_label
  _atom_site_symmetry_multiplicity
  _atom_site_fract_x
  _atom_site_fract_y
  _atom_site_fract_z
  _atom_site_occupancy
  Pd  Pd1       1.0  0.00000  0.00000  0.00000  1.0000
  C   C1        1.0  0.69714  0.50000  0.19714  1.0000
  C   C2        1.0  0.30286  0.50000  0.80286  1.0000
  C   C3        1.0  0.33570  0.33570  0.00000  1.0000
  C   C4        1.0  0.66430  0.66430  0.00000  1.0000
  C   C5        1.0  0.50000  1.00000  0.50000  1.0000
