data_image0
_chemical_formula_structural       Pd2C24
_chemical_formula_sum              "Pd2 C24"
_cell_length_a       4.29905
_cell_length_b       4.29905
_cell_length_c       16.3037
_cell_angle_alpha    90
_cell_angle_beta     90
_cell_angle_gamma    120.004

_space_group_name_H-M_alt    "P 1"
_space_group_IT_number       1

loop_
  _space_group_symop_operation_xyz
  'x, y, z'

loop_
  _atom_site_type_symbol
  _atom_site_label
  _atom_site_symmetry_multiplicity
  _atom_site_fract_x
  _atom_site_fract_y
  _atom_site_fract_z
  _atom_site_occupancy
  Pd  Pd1       1.0  0.83343  0.83343  0.75000  1.0000
  Pd  Pd2       1.0  0.16657  0.16657  0.25000  1.0000
  C   C1        1.0  0.83246  0.16682  0.11833  1.0000
  C   C2        1.0  0.83246  0.16682  0.38167  1.0000
  C   C3        1.0  0.50107  0.16674  0.11834  1.0000
  C   C4        1.0  0.50107  0.16674  0.38166  1.0000
  C   C5        1.0  0.83318  0.16754  0.61833  1.0000
  C   C6        1.0  0.83318  0.16754  0.88167  1.0000
  C   C7        1.0  0.83326  0.49893  0.61834  1.0000
  C   C8        1.0  0.83326  0.49893  0.88166  1.0000
  C   C9        1.0  0.16682  0.83246  0.11833  1.0000
  C   C10       1.0  0.16682  0.83246  0.38167  1.0000
  C   C11       1.0  0.83237  0.83237  0.11831  1.0000
  C   C12       1.0  0.83237  0.83237  0.38169  1.0000
  C   C13       1.0  0.16754  0.83318  0.61833  1.0000
  C   C14       1.0  0.16754  0.83318  0.88167  1.0000
  C   C15       1.0  0.16763  0.16763  0.61831  1.0000
  C   C16       1.0  0.16763  0.16763  0.88169  1.0000
  C   C17       1.0  0.50117  0.50117  0.11828  1.0000
  C   C18       1.0  0.50117  0.50117  0.38172  1.0000
  C   C19       1.0  0.16674  0.50107  0.11834  1.0000
  C   C20       1.0  0.16674  0.50107  0.38166  1.0000
  C   C21       1.0  0.49883  0.49883  0.61828  1.0000
  C   C22       1.0  0.49883  0.49883  0.88172  1.0000
  C   C23       1.0  0.49893  0.83326  0.61834  1.0000
  C   C24       1.0  0.49893  0.83326  0.88166  1.0000
