data_image0
_chemical_formula_structural       Pd2Hg4
_chemical_formula_sum              "Pd2 Hg4"
_cell_length_a       6.11638
_cell_length_b       6.11638
_cell_length_c       6.11638
_cell_angle_alpha    104.911
_cell_angle_beta     124.885
_cell_angle_gamma    99.8317

_space_group_name_H-M_alt    "P 1"
_space_group_IT_number       1

loop_
  _space_group_symop_operation_xyz
  'x, y, z'

loop_
  _atom_site_type_symbol
  _atom_site_label
  _atom_site_symmetry_multiplicity
  _atom_site_fract_x
  _atom_site_fract_y
  _atom_site_fract_z
  _atom_site_occupancy
  Pd  Pd1       1.0  0.00000  0.00000  0.00000  1.0000
  Pd  Pd2       1.0  0.50000  0.00000  0.50000  1.0000
  Hg  Hg1       1.0  0.24553  0.49879  0.25326  1.0000
  Hg  Hg2       1.0  0.75447  0.50121  0.74674  1.0000
  Hg  Hg3       1.0  0.25447  0.00772  0.75326  1.0000
  Hg  Hg4       1.0  0.74553  0.99228  0.24674  1.0000
