data_image0
_chemical_formula_structural       C3Pd2
_chemical_formula_sum              "C3 Pd2"
_cell_length_a       7.04077
_cell_length_b       7.04077
_cell_length_c       2.88756
_cell_angle_alpha    90
_cell_angle_beta     90
_cell_angle_gamma    156.026

_space_group_name_H-M_alt    "P 1"
_space_group_IT_number       1

loop_
  _space_group_symop_operation_xyz
  'x, y, z'

loop_
  _atom_site_type_symbol
  _atom_site_label
  _atom_site_symmetry_multiplicity
  _atom_site_fract_x
  _atom_site_fract_y
  _atom_site_fract_z
  _atom_site_occupancy
  C   C1        1.0  0.50000  0.50000  0.00000  1.0000
  C   C2        1.0  0.40530  0.59470  0.00000  1.0000
  C   C3        1.0  0.59470  0.40530  0.00000  1.0000
  Pd  Pd1       1.0  0.84440  0.15560  0.50000  1.0000
  Pd  Pd2       1.0  0.15560  0.84440  0.50000  1.0000
