data_image0
_chemical_formula_structural       C18Pd8
_chemical_formula_sum              "C18 Pd8"
_cell_length_a       6.98046
_cell_length_b       6.98046
_cell_length_c       6.98046
_cell_angle_alpha    94.129
_cell_angle_beta     94.129
_cell_angle_gamma    94.129

_space_group_name_H-M_alt    "P 1"
_space_group_IT_number       1

loop_
  _space_group_symop_operation_xyz
  'x, y, z'

loop_
  _atom_site_type_symbol
  _atom_site_label
  _atom_site_symmetry_multiplicity
  _atom_site_fract_x
  _atom_site_fract_y
  _atom_site_fract_z
  _atom_site_occupancy
  C   C1        1.0  0.25314  0.92687  0.81881  1.0000
  C   C2        1.0  0.14560  0.20751  0.61789  1.0000
  C   C3        1.0  0.20751  0.61789  0.14560  1.0000
  C   C4        1.0  0.80601  0.44498  0.61948  1.0000
  C   C5        1.0  0.92687  0.81881  0.25314  1.0000
  C   C6        1.0  0.74686  0.18119  0.07313  1.0000
  C   C7        1.0  0.81881  0.25314  0.92687  1.0000
  C   C8        1.0  0.61789  0.14560  0.20751  1.0000
  C   C9        1.0  0.85440  0.38211  0.79249  1.0000
  C   C10       1.0  0.44498  0.61948  0.80601  1.0000
  C   C11       1.0  0.79249  0.85440  0.38211  1.0000
  C   C12       1.0  0.38211  0.79249  0.85440  1.0000
  C   C13       1.0  0.61948  0.80601  0.44498  1.0000
  C   C14       1.0  0.55502  0.19399  0.38052  1.0000
  C   C15       1.0  0.38052  0.55502  0.19399  1.0000
  C   C16       1.0  0.19399  0.38052  0.55502  1.0000
  C   C17       1.0  0.07313  0.74686  0.18119  1.0000
  C   C18       1.0  0.18119  0.07313  0.74686  1.0000
  Pd  Pd1       1.0  0.15528  0.50000  0.84472  1.0000
  Pd  Pd2       1.0  0.84472  0.15528  0.50000  1.0000
  Pd  Pd3       1.0  0.00000  0.55126  0.44874  1.0000
  Pd  Pd4       1.0  0.50000  0.84472  0.15528  1.0000
  Pd  Pd5       1.0  0.00000  0.00000  0.00000  1.0000
  Pd  Pd6       1.0  0.55126  0.44874  0.00000  1.0000
  Pd  Pd7       1.0  0.50000  0.50000  0.50000  1.0000
  Pd  Pd8       1.0  0.44874  1.00000  0.55126  1.0000
