data_image0
_chemical_formula_structural       HgPd
_chemical_formula_sum              "Hg1 Pd1"
_cell_length_a       8.38141
_cell_length_b       8.38141
_cell_length_c       5.67901
_cell_angle_alpha    90
_cell_angle_beta     90
_cell_angle_gamma    120

_space_group_name_H-M_alt    "P 1"
_space_group_IT_number       1

loop_
  _space_group_symop_operation_xyz
  'x, y, z'

loop_
  _atom_site_type_symbol
  _atom_site_label
  _atom_site_symmetry_multiplicity
  _atom_site_fract_x
  _atom_site_fract_y
  _atom_site_fract_z
  _atom_site_occupancy
  Hg  Hg1       1.0  0.00000  0.00000  0.01001  1.0000
  Pd  Pd1       1.0  0.00000  0.00000  0.65999  1.0000
