data_image0
_chemical_formula_structural       Pd9C12
_chemical_formula_sum              "Pd9 C12"
_cell_length_a       6.69717
_cell_length_b       6.69717
_cell_length_c       5.84011
_cell_angle_alpha    75.9585
_cell_angle_beta     75.9585
_cell_angle_gamma    90.1322

_space_group_name_H-M_alt    "P 1"
_space_group_IT_number       1

loop_
  _space_group_symop_operation_xyz
  'x, y, z'

loop_
  _atom_site_type_symbol
  _atom_site_label
  _atom_site_symmetry_multiplicity
  _atom_site_fract_x
  _atom_site_fract_y
  _atom_site_fract_z
  _atom_site_occupancy
  Pd  Pd1       1.0  0.14593  0.85407  0.00000  1.0000
  Pd  Pd2       1.0  0.85407  0.14593  0.00000  1.0000
  Pd  Pd3       1.0  0.00000  0.00000  0.50000  1.0000
  Pd  Pd4       1.0  0.35744  0.35744  0.98010  1.0000
  Pd  Pd5       1.0  0.64256  0.64256  0.01990  1.0000
  Pd  Pd6       1.0  0.80983  0.50779  0.44286  1.0000
  Pd  Pd7       1.0  0.49221  0.19017  0.55714  1.0000
  Pd  Pd8       1.0  0.19017  0.49221  0.55714  1.0000
  Pd  Pd9       1.0  0.50779  0.80983  0.44286  1.0000
  C   C1        1.0  0.90360  0.46081  0.02573  1.0000
  C   C2        1.0  0.53919  0.09640  0.97427  1.0000
  C   C3        1.0  0.09640  0.53919  0.97427  1.0000
  C   C4        1.0  0.46081  0.90360  0.02573  1.0000
  C   C5        1.0  0.13028  0.13028  0.12324  1.0000
  C   C6        1.0  0.86972  0.86972  0.87676  1.0000
  C   C7        1.0  0.04635  0.72658  0.38151  1.0000
  C   C8        1.0  0.27342  0.95365  0.61849  1.0000
  C   C9        1.0  0.95365  0.27342  0.61849  1.0000
  C   C10       1.0  0.58711  0.58711  0.70400  1.0000
  C   C11       1.0  0.41289  0.41289  0.29600  1.0000
  C   C12       1.0  0.72658  0.04635  0.38151  1.0000
