data_image0
_chemical_formula_structural       Pd4C6
_chemical_formula_sum              "Pd4 C6"
_cell_length_a       3.8928
_cell_length_b       4.0421
_cell_length_c       8.84965
_cell_angle_alpha    90
_cell_angle_beta     90
_cell_angle_gamma    90

_space_group_name_H-M_alt    "P 1"
_space_group_IT_number       1

loop_
  _space_group_symop_operation_xyz
  'x, y, z'

loop_
  _atom_site_type_symbol
  _atom_site_label
  _atom_site_symmetry_multiplicity
  _atom_site_fract_x
  _atom_site_fract_y
  _atom_site_fract_z
  _atom_site_occupancy
  Pd  Pd1       1.0  0.50000  0.01691  0.23619  1.0000
  Pd  Pd2       1.0  0.50000  0.98309  0.76381  1.0000
  Pd  Pd3       1.0  0.00000  0.51691  0.26381  1.0000
  Pd  Pd4       1.0  0.00000  0.48309  0.73619  1.0000
  C   C1        1.0  0.50000  0.48210  0.85104  1.0000
  C   C2        1.0  0.50000  0.51790  0.14896  1.0000
  C   C3        1.0  0.00000  0.98210  0.64896  1.0000
  C   C4        1.0  0.00000  0.01790  0.35104  1.0000
  C   C5        1.0  0.00000  0.00000  0.50000  1.0000
  C   C6        1.0  0.50000  0.50000  0.00000  1.0000
