data_image0
_chemical_formula_structural       Pd5Hg6
_chemical_formula_sum              "Pd5 Hg6"
_cell_length_a       7.29495
_cell_length_b       7.29495
_cell_length_c       7.29495
_cell_angle_alpha    54.4242
_cell_angle_beta     54.4242
_cell_angle_gamma    54.4243

_space_group_name_H-M_alt    "P 1"
_space_group_IT_number       1

loop_
  _space_group_symop_operation_xyz
  'x, y, z'

loop_
  _atom_site_type_symbol
  _atom_site_label
  _atom_site_symmetry_multiplicity
  _atom_site_fract_x
  _atom_site_fract_y
  _atom_site_fract_z
  _atom_site_occupancy
  Pd  Pd1       1.0  0.81632  0.81632  0.81632  1.0000
  Pd  Pd2       1.0  0.50000  0.50000  0.50000  1.0000
  Pd  Pd3       1.0  0.18368  0.18368  0.18368  1.0000
  Pd  Pd4       1.0  0.66616  0.66616  0.66616  1.0000
  Pd  Pd5       1.0  0.33384  0.33384  0.33384  1.0000
  Hg  Hg1       1.0  0.08774  0.36084  0.78531  1.0000
  Hg  Hg2       1.0  0.78531  0.08774  0.36084  1.0000
  Hg  Hg3       1.0  0.36084  0.78531  0.08774  1.0000
  Hg  Hg4       1.0  0.91226  0.63916  0.21469  1.0000
  Hg  Hg5       1.0  0.63916  0.21469  0.91226  1.0000
  Hg  Hg6       1.0  0.21469  0.91226  0.63916  1.0000
