data_image0
_chemical_formula_structural       Pd3Hg9
_chemical_formula_sum              "Pd3 Hg9"
_cell_length_a       10.9259
_cell_length_b       10.9259
_cell_length_c       10.9259
_cell_angle_alpha    29.7943
_cell_angle_beta     29.7943
_cell_angle_gamma    29.7943

_space_group_name_H-M_alt    "P 1"
_space_group_IT_number       1

loop_
  _space_group_symop_operation_xyz
  'x, y, z'

loop_
  _atom_site_type_symbol
  _atom_site_label
  _atom_site_symmetry_multiplicity
  _atom_site_fract_x
  _atom_site_fract_y
  _atom_site_fract_z
  _atom_site_occupancy
  Pd  Pd1       1.0  0.86298  0.86298  0.86298  1.0000
  Pd  Pd2       1.0  0.13702  0.13702  0.13702  1.0000
  Pd  Pd3       1.0  0.00000  0.00000  0.00000  1.0000
  Hg  Hg1       1.0  0.33452  0.33452  0.33452  1.0000
  Hg  Hg2       1.0  0.40763  0.40763  0.91530  1.0000
  Hg  Hg3       1.0  0.59237  0.59237  0.08470  1.0000
  Hg  Hg4       1.0  0.66548  0.66548  0.66548  1.0000
  Hg  Hg5       1.0  0.59237  0.08470  0.59237  1.0000
  Hg  Hg6       1.0  0.91530  0.40763  0.40763  1.0000
  Hg  Hg7       1.0  0.40763  0.91530  0.40763  1.0000
  Hg  Hg8       1.0  0.50000  0.50000  0.50000  1.0000
  Hg  Hg9       1.0  0.08470  0.59237  0.59237  1.0000
