data_image0
_chemical_formula_structural       Pd4C20
_chemical_formula_sum              "Pd4 C20"
_cell_length_a       4.89829
_cell_length_b       9.77973
_cell_length_c       10.0142
_cell_angle_alpha    25.5967
_cell_angle_beta     90
_cell_angle_gamma    90

_space_group_name_H-M_alt    "P 1"
_space_group_IT_number       1

loop_
  _space_group_symop_operation_xyz
  'x, y, z'

loop_
  _atom_site_type_symbol
  _atom_site_label
  _atom_site_symmetry_multiplicity
  _atom_site_fract_x
  _atom_site_fract_y
  _atom_site_fract_z
  _atom_site_occupancy
  Pd  Pd1       1.0  0.50000  0.00000  0.50000  1.0000
  Pd  Pd2       1.0  0.00000  0.00000  0.00000  1.0000
  Pd  Pd3       1.0  0.50000  0.50000  0.50000  1.0000
  Pd  Pd4       1.0  0.00000  0.50000  0.00000  1.0000
  C   C1        1.0  0.88987  0.81162  0.89892  1.0000
  C   C2        1.0  0.11652  0.85224  0.41065  1.0000
  C   C3        1.0  0.47365  0.47879  0.08493  1.0000
  C   C4        1.0  0.61013  0.81162  0.39892  1.0000
  C   C5        1.0  0.88118  0.63470  0.57311  1.0000
  C   C6        1.0  0.86135  0.34019  0.92551  1.0000
  C   C7        1.0  0.38348  0.85224  0.91065  1.0000
  C   C8        1.0  0.02635  0.47879  0.58493  1.0000
  C   C9        1.0  0.36135  0.65981  0.57449  1.0000
  C   C10       1.0  0.61882  0.63470  0.07311  1.0000
  C   C11       1.0  0.38118  0.36530  0.92689  1.0000
  C   C12       1.0  0.63865  0.34019  0.42551  1.0000
  C   C13       1.0  0.97365  0.52121  0.41507  1.0000
  C   C14       1.0  0.61652  0.14776  0.08935  1.0000
  C   C15       1.0  0.13865  0.65981  0.07449  1.0000
  C   C16       1.0  0.11882  0.36530  0.42689  1.0000
  C   C17       1.0  0.38987  0.18838  0.60108  1.0000
  C   C18       1.0  0.52635  0.52121  0.91507  1.0000
  C   C19       1.0  0.88348  0.14776  0.58935  1.0000
  C   C20       1.0  0.11013  0.18838  0.10108  1.0000
