data_image0
_chemical_formula_structural       Pd4C16
_chemical_formula_sum              "Pd4 C16"
_cell_length_a       3.64911
_cell_length_b       7.98333
_cell_length_c       8.02276
_cell_angle_alpha    90
_cell_angle_beta     90
_cell_angle_gamma    90

_space_group_name_H-M_alt    "P 1"
_space_group_IT_number       1

loop_
  _space_group_symop_operation_xyz
  'x, y, z'

loop_
  _atom_site_type_symbol
  _atom_site_label
  _atom_site_symmetry_multiplicity
  _atom_site_fract_x
  _atom_site_fract_y
  _atom_site_fract_z
  _atom_site_occupancy
  Pd  Pd1       1.0  0.75000  0.51660  0.62169  1.0000
  Pd  Pd2       1.0  0.25000  0.48340  0.37831  1.0000
  Pd  Pd3       1.0  0.75000  0.01660  0.87831  1.0000
  Pd  Pd4       1.0  0.25000  0.98340  0.12169  1.0000
  C   C1        1.0  0.75000  0.69391  0.05285  1.0000
  C   C2        1.0  0.25000  0.30609  0.94715  1.0000
  C   C3        1.0  0.75000  0.19391  0.44715  1.0000
  C   C4        1.0  0.25000  0.80609  0.55285  1.0000
  C   C5        1.0  0.75000  0.86228  0.09993  1.0000
  C   C6        1.0  0.25000  0.13772  0.90007  1.0000
  C   C7        1.0  0.75000  0.36228  0.40007  1.0000
  C   C8        1.0  0.25000  0.63772  0.59993  1.0000
  C   C9        1.0  0.93958  0.41592  0.97492  1.0000
  C   C10       1.0  0.43958  0.58408  0.02508  1.0000
  C   C11       1.0  0.56042  0.91592  0.52508  1.0000
  C   C12       1.0  0.06042  0.08408  0.47492  1.0000
  C   C13       1.0  0.06042  0.58408  0.02508  1.0000
  C   C14       1.0  0.56042  0.41592  0.97492  1.0000
  C   C15       1.0  0.43958  0.08408  0.47492  1.0000
  C   C16       1.0  0.93958  0.91592  0.52508  1.0000
