data_image0
_chemical_formula_structural       Pd12C28
_chemical_formula_sum              "Pd12 C28"
_cell_length_a       12.5961
_cell_length_b       12.5961
_cell_length_c       7.89116
_cell_angle_alpha    77.2493
_cell_angle_beta     77.2493
_cell_angle_gamma    64.5863

_space_group_name_H-M_alt    "P 1"
_space_group_IT_number       1

loop_
  _space_group_symop_operation_xyz
  'x, y, z'

loop_
  _atom_site_type_symbol
  _atom_site_label
  _atom_site_symmetry_multiplicity
  _atom_site_fract_x
  _atom_site_fract_y
  _atom_site_fract_z
  _atom_site_occupancy
  Pd  Pd1       1.0  0.76848  0.45696  0.21979  1.0000
  Pd  Pd2       1.0  0.45696  0.76848  0.71979  1.0000
  Pd  Pd3       1.0  0.51390  0.41357  0.10057  1.0000
  Pd  Pd4       1.0  0.41357  0.51390  0.60057  1.0000
  Pd  Pd5       1.0  0.29208  0.49951  0.28041  1.0000
  Pd  Pd6       1.0  0.49951  0.29208  0.78041  1.0000
  Pd  Pd7       1.0  0.80890  0.11727  0.22595  1.0000
  Pd  Pd8       1.0  0.11727  0.80890  0.72595  1.0000
  Pd  Pd9       1.0  0.92811  0.89614  0.39351  1.0000
  Pd  Pd10      1.0  0.89614  0.92811  0.89351  1.0000
  Pd  Pd11      1.0  0.86361  0.58532  0.27585  1.0000
  Pd  Pd12      1.0  0.58532  0.86361  0.77585  1.0000
  C   C1        1.0  0.63681  0.31693  0.44852  1.0000
  C   C2        1.0  0.31693  0.63681  0.94852  1.0000
  C   C3        1.0  0.02526  0.72976  0.32422  1.0000
  C   C4        1.0  0.72976  0.02526  0.82422  1.0000
  C   C5        1.0  0.96779  0.67381  0.26017  1.0000
  C   C6        1.0  0.67381  0.96779  0.76017  1.0000
  C   C7        1.0  0.12878  0.63502  0.24471  1.0000
  C   C8        1.0  0.63502  0.12878  0.74471  1.0000
  C   C9        1.0  0.73390  0.29088  0.33784  1.0000
  C   C10       1.0  0.29088  0.73390  0.83784  1.0000
  C   C11       1.0  0.44768  0.40405  0.36892  1.0000
  C   C12       1.0  0.40405  0.44768  0.86892  1.0000
  C   C13       1.0  0.80864  0.47645  0.43816  1.0000
  C   C14       1.0  0.47645  0.80864  0.93816  1.0000
  C   C15       1.0  0.72152  0.29357  0.14500  1.0000
  C   C16       1.0  0.29357  0.72152  0.64500  1.0000
  C   C17       1.0  0.05446  0.69450  0.10511  1.0000
  C   C18       1.0  0.69450  0.05446  0.60511  1.0000
  C   C19       1.0  0.67758  0.40876  0.07757  1.0000
  C   C20       1.0  0.40876  0.67758  0.57757  1.0000
  C   C21       1.0  0.77404  0.02987  0.46119  1.0000
  C   C22       1.0  0.02987  0.77404  0.96119  1.0000
  C   C23       1.0  0.87911  0.97578  0.11828  1.0000
  C   C24       1.0  0.97578  0.87911  0.61828  1.0000
  C   C25       1.0  0.82551  0.57452  0.06269  1.0000
  C   C26       1.0  0.57452  0.82551  0.56269  1.0000
  C   C27       1.0  0.35068  0.51869  0.99904  1.0000
  C   C28       1.0  0.51869  0.35068  0.49904  1.0000
