data_image0
_chemical_formula_structural       Pd2C8
_chemical_formula_sum              "Pd2 C8"
_cell_length_a       4.82266
_cell_length_b       2.59428
_cell_length_c       9.55525
_cell_angle_alpha    90
_cell_angle_beta     90
_cell_angle_gamma    90

_space_group_name_H-M_alt    "P 1"
_space_group_IT_number       1

loop_
  _space_group_symop_operation_xyz
  'x, y, z'

loop_
  _atom_site_type_symbol
  _atom_site_label
  _atom_site_symmetry_multiplicity
  _atom_site_fract_x
  _atom_site_fract_y
  _atom_site_fract_z
  _atom_site_occupancy
  Pd  Pd1       1.0  0.00000  0.50000  0.50000  1.0000
  Pd  Pd2       1.0  0.00000  0.00000  0.00000  1.0000
  C   C1        1.0  0.00000  0.56340  0.72592  1.0000
  C   C2        1.0  0.00000  0.06340  0.77408  1.0000
  C   C3        1.0  0.50000  0.74976  0.99919  1.0000
  C   C4        1.0  0.50000  0.75024  0.49919  1.0000
  C   C5        1.0  0.50000  0.24976  0.50081  1.0000
  C   C6        1.0  0.50000  0.25024  0.00081  1.0000
  C   C7        1.0  0.00000  0.93660  0.22592  1.0000
  C   C8        1.0  0.00000  0.43660  0.27408  1.0000
