data_image0
_chemical_formula_structural       Pd4Hg8
_chemical_formula_sum              "Pd4 Hg8"
_cell_length_a       11.305
_cell_length_b       11.305
_cell_length_c       11.305
_cell_angle_alpha    98.095
_cell_angle_beta     98.095
_cell_angle_gamma    135.92

_space_group_name_H-M_alt    "P 1"
_space_group_IT_number       1

loop_
  _space_group_symop_operation_xyz
  'x, y, z'

loop_
  _atom_site_type_symbol
  _atom_site_label
  _atom_site_symmetry_multiplicity
  _atom_site_fract_x
  _atom_site_fract_y
  _atom_site_fract_z
  _atom_site_occupancy
  Pd  Pd1       1.0  0.14850  0.14309  0.35425  1.0000
  Pd  Pd2       1.0  0.78884  0.79425  0.64575  1.0000
  Pd  Pd3       1.0  0.20575  0.85150  0.99459  1.0000
  Pd  Pd4       1.0  0.85691  0.21116  0.00541  1.0000
  Hg  Hg1       1.0  0.92711  0.97784  0.48685  1.0000
  Hg  Hg2       1.0  0.49098  0.44026  0.51315  1.0000
  Hg  Hg3       1.0  0.55974  0.07289  0.05072  1.0000
  Hg  Hg4       1.0  0.02216  0.50902  0.94928  1.0000
  Hg  Hg5       1.0  0.04897  0.22975  0.19143  1.0000
  Hg  Hg6       1.0  0.03832  0.85754  0.80857  1.0000
  Hg  Hg7       1.0  0.14246  0.95103  0.18079  1.0000
  Hg  Hg8       1.0  0.77025  0.96168  0.81921  1.0000
