data_image0
_chemical_formula_structural       Pd7C8
_chemical_formula_sum              "Pd7 C8"
_cell_length_a       6.03765
_cell_length_b       6.03765
_cell_length_c       5.3972
_cell_angle_alpha    90
_cell_angle_beta     90
_cell_angle_gamma    120

_space_group_name_H-M_alt    "P 1"
_space_group_IT_number       1

loop_
  _space_group_symop_operation_xyz
  'x, y, z'

loop_
  _atom_site_type_symbol
  _atom_site_label
  _atom_site_symmetry_multiplicity
  _atom_site_fract_x
  _atom_site_fract_y
  _atom_site_fract_z
  _atom_site_occupancy
  Pd  Pd1       1.0  0.15519  0.31039  0.50291  1.0000
  Pd  Pd2       1.0  0.15519  0.84481  0.50291  1.0000
  Pd  Pd3       1.0  0.68961  0.84481  0.50291  1.0000
  Pd  Pd4       1.0  0.17584  0.35168  0.00812  1.0000
  Pd  Pd5       1.0  0.17584  0.82416  0.00812  1.0000
  Pd  Pd6       1.0  0.64832  0.82416  0.00812  1.0000
  Pd  Pd7       1.0  0.66667  0.33333  0.47447  1.0000
  C   C1        1.0  0.00000  0.00000  0.19253  1.0000
  C   C2        1.0  0.33333  0.66667  0.70807  1.0000
  C   C3        1.0  0.49855  0.50145  0.27039  1.0000
  C   C4        1.0  0.00290  0.50145  0.27039  1.0000
  C   C5        1.0  0.49855  0.99710  0.27039  1.0000
  C   C6        1.0  0.83504  0.16496  0.76012  1.0000
  C   C7        1.0  0.32992  0.16496  0.76012  1.0000
  C   C8        1.0  0.83504  0.67008  0.76012  1.0000
