data_image0
_chemical_formula_structural       Hg28Pd6
_chemical_formula_sum              "Hg28 Pd6"
_cell_length_a       18.0004
_cell_length_b       16.3384
_cell_length_c       8.78287
_cell_angle_alpha    85.9899
_cell_angle_beta     64.884
_cell_angle_gamma    29.1261

_space_group_name_H-M_alt    "P 1"
_space_group_IT_number       1

loop_
  _space_group_symop_operation_xyz
  'x, y, z'

loop_
  _atom_site_type_symbol
  _atom_site_label
  _atom_site_symmetry_multiplicity
  _atom_site_fract_x
  _atom_site_fract_y
  _atom_site_fract_z
  _atom_site_occupancy
  Hg  Hg1       1.0  0.06621  0.82842  0.81647  1.0000
  Hg  Hg2       1.0  0.14609  0.56007  0.92691  1.0000
  Hg  Hg3       1.0  0.21707  0.78293  0.21707  1.0000
  Hg  Hg4       1.0  0.96110  0.43353  0.42158  1.0000
  Hg  Hg5       1.0  0.82344  0.78319  0.42475  1.0000
  Hg  Hg6       1.0  0.28137  0.82525  0.46681  1.0000
  Hg  Hg7       1.0  0.81647  0.28890  0.06621  1.0000
  Hg  Hg8       1.0  0.56007  0.14609  0.36693  1.0000
  Hg  Hg9       1.0  0.36693  0.92691  0.56007  1.0000
  Hg  Hg10      1.0  0.96863  0.42475  0.78319  1.0000
  Hg  Hg11      1.0  0.42656  0.46681  0.82525  1.0000
  Hg  Hg12      1.0  0.32309  0.88307  0.10391  1.0000
  Hg  Hg13      1.0  0.18379  0.42158  0.43353  1.0000
  Hg  Hg14      1.0  0.92691  0.36693  0.14609  1.0000
  Hg  Hg15      1.0  0.10391  0.68993  0.32309  1.0000
  Hg  Hg16      1.0  0.82525  0.28137  0.42656  1.0000
  Hg  Hg17      1.0  0.46707  0.03293  0.46707  1.0000
  Hg  Hg18      1.0  0.28890  0.81647  0.82842  1.0000
  Hg  Hg19      1.0  0.46681  0.42656  0.28137  1.0000
  Hg  Hg20      1.0  0.43353  0.96110  0.18379  1.0000
  Hg  Hg21      1.0  0.78293  0.21707  0.78293  1.0000
  Hg  Hg22      1.0  0.42158  0.18379  0.96110  1.0000
  Hg  Hg23      1.0  0.03293  0.46707  0.03293  1.0000
  Hg  Hg24      1.0  0.42475  0.96863  0.82344  1.0000
  Hg  Hg25      1.0  0.78319  0.82344  0.96863  1.0000
  Hg  Hg26      1.0  0.88307  0.32309  0.68993  1.0000
  Hg  Hg27      1.0  0.82842  0.06621  0.28890  1.0000
  Hg  Hg28      1.0  0.68993  0.10391  0.88307  1.0000
  Pd  Pd1       1.0  0.62500  0.62500  0.12500  1.0000
  Pd  Pd2       1.0  0.75000  0.75000  0.75000  1.0000
  Pd  Pd3       1.0  0.62500  0.12500  0.62500  1.0000
  Pd  Pd4       1.0  0.62500  0.62500  0.62500  1.0000
  Pd  Pd5       1.0  0.12500  0.62500  0.62500  1.0000
  Pd  Pd6       1.0  0.50000  0.50000  0.50000  1.0000
