data_image0
_chemical_formula_structural       Pd3C29
_chemical_formula_sum              "Pd3 C29"
_cell_length_a       7.01604
_cell_length_b       7.01604
_cell_length_c       6.26076
_cell_angle_alpha    100.108
_cell_angle_beta     100.109
_cell_angle_gamma    104.736

_space_group_name_H-M_alt    "P 1"
_space_group_IT_number       1

loop_
  _space_group_symop_operation_xyz
  'x, y, z'

loop_
  _atom_site_type_symbol
  _atom_site_label
  _atom_site_symmetry_multiplicity
  _atom_site_fract_x
  _atom_site_fract_y
  _atom_site_fract_z
  _atom_site_occupancy
  Pd  Pd1       1.0  0.84810  0.84810  0.48836  1.0000
  Pd  Pd2       1.0  0.15190  0.15190  0.51164  1.0000
  Pd  Pd3       1.0  0.00000  0.00000  0.00000  1.0000
  C   C1        1.0  0.50000  0.00000  0.00000  1.0000
  C   C2        1.0  0.00000  0.50000  0.00000  1.0000
  C   C3        1.0  0.95507  0.39793  0.59793  1.0000
  C   C4        1.0  0.50000  0.50000  0.50000  1.0000
  C   C5        1.0  0.35716  0.35716  0.98324  1.0000
  C   C6        1.0  0.64284  0.64284  0.01676  1.0000
  C   C7        1.0  0.64953  0.64953  0.62683  1.0000
  C   C8        1.0  0.35047  0.35047  0.37317  1.0000
  C   C9        1.0  0.33216  0.69996  0.20489  1.0000
  C   C10       1.0  0.30004  0.66784  0.79511  1.0000
  C   C11       1.0  0.66784  0.30004  0.79511  1.0000
  C   C12       1.0  0.69996  0.33216  0.20489  1.0000
  C   C13       1.0  0.43451  0.86284  0.38143  1.0000
  C   C14       1.0  0.13716  0.56549  0.61857  1.0000
  C   C15       1.0  0.56549  0.13716  0.61857  1.0000
  C   C16       1.0  0.86284  0.43451  0.38143  1.0000
  C   C17       1.0  0.60387  0.39613  1.00000  1.0000
  C   C18       1.0  0.39613  0.60387  0.00000  1.0000
  C   C19       1.0  0.26340  0.26340  0.15518  1.0000
  C   C20       1.0  0.73660  0.73660  0.84482  1.0000
  C   C21       1.0  0.12432  0.60422  0.20141  1.0000
  C   C22       1.0  0.39578  0.87568  0.79859  1.0000
  C   C23       1.0  0.87568  0.39578  0.79859  1.0000
  C   C24       1.0  0.60422  0.12432  0.20141  1.0000
  C   C25       1.0  0.81181  0.81181  0.16904  1.0000
  C   C26       1.0  0.18819  0.18819  0.83096  1.0000
  C   C27       1.0  0.39793  0.95507  0.59793  1.0000
  C   C28       1.0  0.04493  0.60207  0.40207  1.0000
  C   C29       1.0  0.60207  0.04493  0.40207  1.0000
