data_image0
_chemical_formula_structural       Pd3C20
_chemical_formula_sum              "Pd3 C20"
_cell_length_a       10.9648
_cell_length_b       10.9648
_cell_length_c       5.16943
_cell_angle_alpha    90
_cell_angle_beta     90
_cell_angle_gamma    155.42

_space_group_name_H-M_alt    "P 1"
_space_group_IT_number       1

loop_
  _space_group_symop_operation_xyz
  'x, y, z'

loop_
  _atom_site_type_symbol
  _atom_site_label
  _atom_site_symmetry_multiplicity
  _atom_site_fract_x
  _atom_site_fract_y
  _atom_site_fract_z
  _atom_site_occupancy
  Pd  Pd1       1.0  0.29423  0.70577  0.00000  1.0000
  Pd  Pd2       1.0  0.70577  0.29423  0.00000  1.0000
  Pd  Pd3       1.0  0.00000  0.00000  0.00000  1.0000
  C   C1        1.0  0.67636  0.32364  0.50000  1.0000
  C   C2        1.0  0.32364  0.67636  0.50000  1.0000
  C   C3        1.0  0.40117  0.10851  0.50000  1.0000
  C   C4        1.0  0.19514  0.80486  0.12864  1.0000
  C   C5        1.0  0.80486  0.19514  0.12864  1.0000
  C   C6        1.0  0.80486  0.19514  0.87136  1.0000
  C   C7        1.0  0.19514  0.80486  0.87136  1.0000
  C   C8        1.0  0.50000  0.50000  0.12347  1.0000
  C   C9        1.0  0.50000  0.50000  0.87653  1.0000
  C   C10       1.0  0.69116  0.62140  0.50000  1.0000
  C   C11       1.0  0.30884  0.37860  0.50000  1.0000
  C   C12       1.0  0.62140  0.69116  0.50000  1.0000
  C   C13       1.0  0.37860  0.30884  0.50000  1.0000
  C   C14       1.0  0.93372  0.76346  0.50000  1.0000
  C   C15       1.0  0.06628  0.23654  0.50000  1.0000
  C   C16       1.0  0.76346  0.93372  0.50000  1.0000
  C   C17       1.0  0.23654  0.06628  0.50000  1.0000
  C   C18       1.0  0.89149  0.59883  0.50000  1.0000
  C   C19       1.0  0.10851  0.40117  0.50000  1.0000
  C   C20       1.0  0.59883  0.89149  0.50000  1.0000
