data_image0
_chemical_formula_structural       Pd2N20
_chemical_formula_sum              "Pd2 N20"
_cell_length_a       5.53751
_cell_length_b       5.53751
_cell_length_c       9.33592
_cell_angle_alpha    90
_cell_angle_beta     90
_cell_angle_gamma    131.276

_space_group_name_H-M_alt    "P 1"
_space_group_IT_number       1

loop_
  _space_group_symop_operation_xyz
  'x, y, z'

loop_
  _atom_site_type_symbol
  _atom_site_label
  _atom_site_symmetry_multiplicity
  _atom_site_fract_x
  _atom_site_fract_y
  _atom_site_fract_z
  _atom_site_occupancy
  Pd  Pd1       1.0  0.14896  0.85104  0.54903  1.0000
  Pd  Pd2       1.0  0.85104  0.14896  0.04903  1.0000
  N   N1        1.0  0.75315  0.72565  0.29181  1.0000
  N   N2        1.0  0.24685  0.27435  0.79181  1.0000
  N   N3        1.0  0.59924  0.40076  0.61024  1.0000
  N   N4        1.0  0.40076  0.59924  0.11024  1.0000
  N   N5        1.0  0.94658  0.05342  0.55804  1.0000
  N   N6        1.0  0.05342  0.94658  0.05804  1.0000
  N   N7        1.0  0.57877  0.42123  0.76306  1.0000
  N   N8        1.0  0.42123  0.57877  0.26306  1.0000
  N   N9        1.0  0.13983  0.86017  0.93384  1.0000
  N   N10       1.0  0.86017  0.13983  0.43384  1.0000
  N   N11       1.0  0.07849  0.92151  0.80915  1.0000
  N   N12       1.0  0.92151  0.07849  0.30915  1.0000
  N   N13       1.0  0.45541  0.54459  0.57543  1.0000
  N   N14       1.0  0.54459  0.45541  0.07543  1.0000
  N   N15       1.0  0.64958  0.84250  0.65351  1.0000
  N   N16       1.0  0.35042  0.15750  0.15351  1.0000
  N   N17       1.0  0.15750  0.35042  0.65351  1.0000
  N   N18       1.0  0.84250  0.64958  0.15351  1.0000
  N   N19       1.0  0.72565  0.75315  0.79181  1.0000
  N   N20       1.0  0.27435  0.24685  0.29181  1.0000
