data_image0
_chemical_formula_structural       Pd2Hg30
_chemical_formula_sum              "Pd2 Hg30"
_cell_length_a       13.3706
_cell_length_b       13.3706
_cell_length_c       13.3706
_cell_angle_alpha    123.948
_cell_angle_beta     140.026
_cell_angle_gamma    71.0478

_space_group_name_H-M_alt    "P 1"
_space_group_IT_number       1

loop_
  _space_group_symop_operation_xyz
  'x, y, z'

loop_
  _atom_site_type_symbol
  _atom_site_label
  _atom_site_symmetry_multiplicity
  _atom_site_fract_x
  _atom_site_fract_y
  _atom_site_fract_z
  _atom_site_occupancy
  Pd  Pd1       1.0  0.92848  0.25000  0.67848  1.0000
  Pd  Pd2       1.0  0.07152  0.75000  0.32152  1.0000
  Hg  Hg1       1.0  0.45230  0.25000  0.20230  1.0000
  Hg  Hg2       1.0  0.54770  0.75000  0.79770  1.0000
  Hg  Hg3       1.0  0.58800  0.41002  0.17798  1.0000
  Hg  Hg4       1.0  0.41200  0.58998  0.82202  1.0000
  Hg  Hg5       1.0  0.26796  0.08998  0.17798  1.0000
  Hg  Hg6       1.0  0.73204  0.91002  0.82202  1.0000
  Hg  Hg7       1.0  0.22627  0.33551  0.89076  1.0000
  Hg  Hg8       1.0  0.77373  0.66449  0.10924  1.0000
  Hg  Hg9       1.0  0.05525  0.16449  0.89076  1.0000
  Hg  Hg10      1.0  0.94475  0.83551  0.10924  1.0000
  Hg  Hg11      1.0  0.83483  0.34517  0.48966  1.0000
  Hg  Hg12      1.0  0.16517  0.65483  0.51034  1.0000
  Hg  Hg13      1.0  0.64449  0.15483  0.48966  1.0000
  Hg  Hg14      1.0  0.35551  0.84517  0.51034  1.0000
  Hg  Hg15      1.0  0.25517  0.58854  0.92508  1.0000
  Hg  Hg16      1.0  0.74483  0.66991  0.33338  1.0000
  Hg  Hg17      1.0  0.83653  0.91146  0.66662  1.0000
  Hg  Hg18      1.0  0.16347  0.83009  0.07492  1.0000
  Hg  Hg19      1.0  0.74483  0.41146  0.07492  1.0000
  Hg  Hg20      1.0  0.25517  0.33009  0.66662  1.0000
  Hg  Hg21      1.0  0.16347  0.08854  0.33338  1.0000
  Hg  Hg22      1.0  0.83653  0.16991  0.92508  1.0000
  Hg  Hg23      1.0  0.47887  0.68199  0.34136  1.0000
  Hg  Hg24      1.0  0.52113  0.86249  0.20312  1.0000
  Hg  Hg25      1.0  0.15937  0.81801  0.79688  1.0000
  Hg  Hg26      1.0  0.84063  0.63751  0.65864  1.0000
  Hg  Hg27      1.0  0.52113  0.31801  0.65864  1.0000
  Hg  Hg28      1.0  0.47887  0.13751  0.79688  1.0000
  Hg  Hg29      1.0  0.84063  0.18199  0.20312  1.0000
  Hg  Hg30      1.0  0.15937  0.36249  0.34136  1.0000
