data_image0
_chemical_formula_structural       Hg4Pd2
_chemical_formula_sum              "Hg4 Pd2"
_cell_length_a       3.05509
_cell_length_b       3.05509
_cell_length_c       15.254
_cell_angle_alpha    90
_cell_angle_beta     90
_cell_angle_gamma    90

_space_group_name_H-M_alt    "P 1"
_space_group_IT_number       1

loop_
  _space_group_symop_operation_xyz
  'x, y, z'

loop_
  _atom_site_type_symbol
  _atom_site_label
  _atom_site_symmetry_multiplicity
  _atom_site_fract_x
  _atom_site_fract_y
  _atom_site_fract_z
  _atom_site_occupancy
  Hg  Hg1       1.0  0.00000  0.00000  0.59798  1.0000
  Hg  Hg2       1.0  0.00000  0.00000  0.40202  1.0000
  Hg  Hg3       1.0  0.00000  0.00000  0.20750  1.0000
  Hg  Hg4       1.0  0.00000  0.00000  0.79250  1.0000
  Pd  Pd1       1.0  0.50000  0.50000  0.91292  1.0000
  Pd  Pd2       1.0  0.50000  0.50000  0.08708  1.0000
