data_image0
_chemical_formula_structural       Pd2N12
_chemical_formula_sum              "Pd2 N12"
_cell_length_a       2.90694
_cell_length_b       5.36126
_cell_length_c       9.20575
_cell_angle_alpha    81.087
_cell_angle_beta     90
_cell_angle_gamma    90

_space_group_name_H-M_alt    "P 1"
_space_group_IT_number       1

loop_
  _space_group_symop_operation_xyz
  'x, y, z'

loop_
  _atom_site_type_symbol
  _atom_site_label
  _atom_site_symmetry_multiplicity
  _atom_site_fract_x
  _atom_site_fract_y
  _atom_site_fract_z
  _atom_site_occupancy
  Pd  Pd1       1.0  0.75000  0.16145  0.76253  1.0000
  Pd  Pd2       1.0  0.25000  0.83855  0.23747  1.0000
  N   N1        1.0  0.75000  0.67965  0.80606  1.0000
  N   N2        1.0  0.25000  0.32035  0.19394  1.0000
  N   N3        1.0  0.25000  0.00972  0.94263  1.0000
  N   N4        1.0  0.75000  0.99028  0.05737  1.0000
  N   N5        1.0  0.25000  0.66507  0.84789  1.0000
  N   N6        1.0  0.75000  0.33493  0.15211  1.0000
  N   N7        1.0  0.25000  0.29738  0.89211  1.0000
  N   N8        1.0  0.75000  0.70262  0.10789  1.0000
  N   N9        1.0  0.25000  0.20590  0.61164  1.0000
  N   N10       1.0  0.75000  0.79410  0.38836  1.0000
  N   N11       1.0  0.25000  0.24813  0.48439  1.0000
  N   N12       1.0  0.75000  0.75187  0.51561  1.0000
