data_image0
_chemical_formula_structural       Pd4N36
_chemical_formula_sum              "Pd4 N36"
_cell_length_a       11.9917
_cell_length_b       7.14923
_cell_length_c       7.53942
_cell_angle_alpha    72.9908
_cell_angle_beta     90
_cell_angle_gamma    90

_space_group_name_H-M_alt    "P 1"
_space_group_IT_number       1

loop_
  _space_group_symop_operation_xyz
  'x, y, z'

loop_
  _atom_site_type_symbol
  _atom_site_label
  _atom_site_symmetry_multiplicity
  _atom_site_fract_x
  _atom_site_fract_y
  _atom_site_fract_z
  _atom_site_occupancy
  Pd  Pd1       1.0  0.55098  0.37479  0.28822  1.0000
  Pd  Pd2       1.0  0.44902  0.62521  0.71178  1.0000
  Pd  Pd3       1.0  0.05098  0.12521  0.71178  1.0000
  Pd  Pd4       1.0  0.94902  0.87479  0.28822  1.0000
  N   N1        1.0  0.79986  0.85033  0.16760  1.0000
  N   N2        1.0  0.18305  0.51761  0.47776  1.0000
  N   N3        1.0  0.22266  0.02294  0.97519  1.0000
  N   N4        1.0  0.52133  0.92085  0.21953  1.0000
  N   N5        1.0  0.25031  0.90948  0.11255  1.0000
  N   N6        1.0  0.98427  0.14337  0.10643  1.0000
  N   N7        1.0  0.22100  0.02109  0.49694  1.0000
  N   N8        1.0  0.51573  0.64337  0.10643  1.0000
  N   N9        1.0  0.31695  0.01761  0.47776  1.0000
  N   N10       1.0  0.61949  0.47699  0.49400  1.0000
  N   N11       1.0  0.47867  0.07915  0.78047  1.0000
  N   N12       1.0  0.70014  0.35033  0.16760  1.0000
  N   N13       1.0  0.77900  0.97891  0.50306  1.0000
  N   N14       1.0  0.11949  0.02301  0.50600  1.0000
  N   N15       1.0  0.20014  0.14967  0.83240  1.0000
  N   N16       1.0  0.74969  0.09052  0.88745  1.0000
  N   N17       1.0  0.01996  0.71811  0.83026  1.0000
  N   N18       1.0  0.88051  0.97699  0.49400  1.0000
  N   N19       1.0  0.01573  0.85663  0.89357  1.0000
  N   N20       1.0  0.27734  0.52294  0.97519  1.0000
  N   N21       1.0  0.38051  0.52301  0.50600  1.0000
  N   N22       1.0  0.77734  0.97706  0.02481  1.0000
  N   N23       1.0  0.48427  0.35663  0.89357  1.0000
  N   N24       1.0  0.29986  0.64967  0.83240  1.0000
  N   N25       1.0  0.68305  0.98239  0.52224  1.0000
  N   N26       1.0  0.48004  0.21811  0.83026  1.0000
  N   N27       1.0  0.02133  0.57915  0.78047  1.0000
  N   N28       1.0  0.27900  0.52109  0.49694  1.0000
  N   N29       1.0  0.24969  0.40948  0.11255  1.0000
  N   N30       1.0  0.72266  0.47706  0.02481  1.0000
  N   N31       1.0  0.75031  0.59052  0.88745  1.0000
  N   N32       1.0  0.51996  0.78189  0.16974  1.0000
  N   N33       1.0  0.72100  0.47891  0.50306  1.0000
  N   N34       1.0  0.81695  0.48239  0.52224  1.0000
  N   N35       1.0  0.97867  0.42085  0.21953  1.0000
  N   N36       1.0  0.98004  0.28189  0.16974  1.0000
