data_image0
_chemical_formula_structural       Hg19Pd16
_chemical_formula_sum              "Hg19 Pd16"
_cell_length_a       7.65397
_cell_length_b       10.368
_cell_length_c       9.24871
_cell_angle_alpha    99.6338
_cell_angle_beta     88.0118
_cell_angle_gamma    91.9496

_space_group_name_H-M_alt    "P 1"
_space_group_IT_number       1

loop_
  _space_group_symop_operation_xyz
  'x, y, z'

loop_
  _atom_site_type_symbol
  _atom_site_label
  _atom_site_symmetry_multiplicity
  _atom_site_fract_x
  _atom_site_fract_y
  _atom_site_fract_z
  _atom_site_occupancy
  Hg  Hg1       1.0  0.79684  0.35547  0.17247  1.0000
  Hg  Hg2       1.0  0.33139  0.15626  0.78484  1.0000
  Hg  Hg3       1.0  0.21525  0.66726  0.83041  1.0000
  Hg  Hg4       1.0  0.67790  0.80145  0.22072  1.0000
  Hg  Hg5       1.0  0.21500  0.43094  0.09970  1.0000
  Hg  Hg6       1.0  0.70480  0.08222  0.87075  1.0000
  Hg  Hg7       1.0  0.77509  0.54057  0.95105  1.0000
  Hg  Hg8       1.0  0.30181  0.89525  0.10557  1.0000
  Hg  Hg9       1.0  0.26872  0.19932  0.26110  1.0000
  Hg  Hg10      1.0  0.76918  0.36084  0.64922  1.0000
  Hg  Hg11      1.0  0.73833  0.75979  0.75523  1.0000
  Hg  Hg12      1.0  0.29822  0.68233  0.34142  1.0000
  Hg  Hg13      1.0  0.71211  0.06074  0.47969  1.0000
  Hg  Hg14      1.0  0.16952  0.44472  0.52431  1.0000
  Hg  Hg15      1.0  0.27935  0.99204  0.49909  1.0000
  Hg  Hg16      1.0  0.78148  0.58502  0.44728  1.0000
  Hg  Hg17      1.0  0.05152  0.94768  0.80433  1.0000
  Hg  Hg18      1.0  0.44603  0.43006  0.81192  1.0000
  Hg  Hg19      1.0  0.94401  0.03746  0.16915  1.0000
  Pd  Pd1       1.0  0.02599  0.20304  0.97407  1.0000
  Pd  Pd2       1.0  0.49302  0.26929  0.03642  1.0000
  Pd  Pd3       1.0  0.95401  0.78690  0.00826  1.0000
  Pd  Pd4       1.0  0.44297  0.63877  0.05449  1.0000
  Pd  Pd5       1.0  0.58229  0.07299  0.19275  1.0000
  Pd  Pd6       1.0  0.07108  0.40980  0.81543  1.0000
  Pd  Pd7       1.0  0.42416  0.89541  0.80657  1.0000
  Pd  Pd8       1.0  0.97389  0.61085  0.20031  1.0000
  Pd  Pd9       1.0  0.55823  0.82719  0.51342  1.0000
  Pd  Pd10      1.0  0.07188  0.72802  0.58243  1.0000
  Pd  Pd11      1.0  0.44842  0.26066  0.52520  1.0000
  Pd  Pd12      1.0  0.93961  0.25234  0.39331  1.0000
  Pd  Pd13      1.0  0.00109  0.86114  0.35302  1.0000
  Pd  Pd14      1.0  0.46536  0.59831  0.60588  1.0000
  Pd  Pd15      1.0  0.00215  0.15312  0.65155  1.0000
  Pd  Pd16      1.0  0.47918  0.44086  0.31875  1.0000
