data_image0
_chemical_formula_structural       Pd8Hg12
_chemical_formula_sum              "Pd8 Hg12"
_cell_length_a       5.35997
_cell_length_b       5.46021
_cell_length_c       14.0756
_cell_angle_alpha    90
_cell_angle_beta     90
_cell_angle_gamma    90

_space_group_name_H-M_alt    "P 1"
_space_group_IT_number       1

loop_
  _space_group_symop_operation_xyz
  'x, y, z'

loop_
  _atom_site_type_symbol
  _atom_site_label
  _atom_site_symmetry_multiplicity
  _atom_site_fract_x
  _atom_site_fract_y
  _atom_site_fract_z
  _atom_site_occupancy
  Pd  Pd1       1.0  0.92116  0.00000  0.25000  1.0000
  Pd  Pd2       1.0  0.57884  0.50000  0.25000  1.0000
  Pd  Pd3       1.0  0.07884  0.00000  0.75000  1.0000
  Pd  Pd4       1.0  0.42116  0.50000  0.75000  1.0000
  Pd  Pd5       1.0  0.75000  0.75000  0.00322  1.0000
  Pd  Pd6       1.0  0.75000  0.25000  0.49678  1.0000
  Pd  Pd7       1.0  0.25000  0.25000  0.99678  1.0000
  Pd  Pd8       1.0  0.25000  0.75000  0.50322  1.0000
  Hg  Hg1       1.0  0.75000  0.75000  0.45049  1.0000
  Hg  Hg2       1.0  0.75000  0.25000  0.04951  1.0000
  Hg  Hg3       1.0  0.25000  0.25000  0.54951  1.0000
  Hg  Hg4       1.0  0.25000  0.75000  0.95049  1.0000
  Hg  Hg5       1.0  0.43036  0.94061  0.15289  1.0000
  Hg  Hg6       1.0  0.43036  0.05939  0.34711  1.0000
  Hg  Hg7       1.0  0.06964  0.44061  0.34711  1.0000
  Hg  Hg8       1.0  0.06964  0.55939  0.15289  1.0000
  Hg  Hg9       1.0  0.56964  0.05939  0.84711  1.0000
  Hg  Hg10      1.0  0.56964  0.94061  0.65289  1.0000
  Hg  Hg11      1.0  0.93036  0.55939  0.65289  1.0000
  Hg  Hg12      1.0  0.93036  0.44061  0.84711  1.0000
