data_image0
_chemical_formula_structural       Pd2Hg6
_chemical_formula_sum              "Pd2 Hg6"
_cell_length_a       7.35731
_cell_length_b       7.35731
_cell_length_c       7.35731
_cell_angle_alpha    64.5543
_cell_angle_beta     64.5543
_cell_angle_gamma    64.5543

_space_group_name_H-M_alt    "P 1"
_space_group_IT_number       1

loop_
  _space_group_symop_operation_xyz
  'x, y, z'

loop_
  _atom_site_type_symbol
  _atom_site_label
  _atom_site_symmetry_multiplicity
  _atom_site_fract_x
  _atom_site_fract_y
  _atom_site_fract_z
  _atom_site_occupancy
  Pd  Pd1       1.0  0.00000  0.00000  0.00000  1.0000
  Pd  Pd2       1.0  0.50000  0.50000  0.50000  1.0000
  Hg  Hg1       1.0  0.24188  0.25803  0.74976  1.0000
  Hg  Hg2       1.0  0.74976  0.24188  0.25803  1.0000
  Hg  Hg3       1.0  0.25803  0.74976  0.24188  1.0000
  Hg  Hg4       1.0  0.75812  0.74197  0.25024  1.0000
  Hg  Hg5       1.0  0.25024  0.75812  0.74197  1.0000
  Hg  Hg6       1.0  0.74197  0.25024  0.75812  1.0000
