data_image0
_chemical_formula_structural       Pd2N6
_chemical_formula_sum              "Pd2 N6"
_cell_length_a       5.42242
_cell_length_b       5.42242
_cell_length_c       5.42242
_cell_angle_alpha    123.122
_cell_angle_beta     107.638
_cell_angle_gamma    98.6609

_space_group_name_H-M_alt    "P 1"
_space_group_IT_number       1

loop_
  _space_group_symop_operation_xyz
  'x, y, z'

loop_
  _atom_site_type_symbol
  _atom_site_label
  _atom_site_symmetry_multiplicity
  _atom_site_fract_x
  _atom_site_fract_y
  _atom_site_fract_z
  _atom_site_occupancy
  Pd  Pd1       1.0  0.75000  0.50000  0.25000  1.0000
  Pd  Pd2       1.0  0.25000  0.50000  0.75000  1.0000
  N   N1        1.0  0.99355  0.22495  0.23141  1.0000
  N   N2        1.0  0.50645  0.23786  0.73141  1.0000
  N   N3        1.0  0.00000  0.00000  0.00000  1.0000
  N   N4        1.0  0.50000  0.00000  0.50000  1.0000
  N   N5        1.0  0.00645  0.77505  0.76859  1.0000
  N   N6        1.0  0.49355  0.76214  0.26859  1.0000
