data_image0
_chemical_formula_structural       Hg8Pd2
_chemical_formula_sum              "Hg8 Pd2"
_cell_length_a       6.82785
_cell_length_b       6.82785
_cell_length_c       6.29641
_cell_angle_alpha    90
_cell_angle_beta     90
_cell_angle_gamma    122.065

_space_group_name_H-M_alt    "P 1"
_space_group_IT_number       1

loop_
  _space_group_symop_operation_xyz
  'x, y, z'

loop_
  _atom_site_type_symbol
  _atom_site_label
  _atom_site_symmetry_multiplicity
  _atom_site_fract_x
  _atom_site_fract_y
  _atom_site_fract_z
  _atom_site_occupancy
  Hg  Hg1       1.0  0.19794  0.45928  0.33033  1.0000
  Hg  Hg2       1.0  0.54072  0.80206  0.66967  1.0000
  Hg  Hg3       1.0  0.45928  0.19794  0.66967  1.0000
  Hg  Hg4       1.0  0.80206  0.54072  0.33033  1.0000
  Hg  Hg5       1.0  0.95928  0.69794  0.83033  1.0000
  Hg  Hg6       1.0  0.30206  0.04072  0.16967  1.0000
  Hg  Hg7       1.0  0.69794  0.95928  0.16967  1.0000
  Hg  Hg8       1.0  0.04072  0.30206  0.83033  1.0000
  Pd  Pd1       1.0  0.50000  0.50000  0.00000  1.0000
  Pd  Pd2       1.0  0.00000  0.00000  0.50000  1.0000
