data_image0
_chemical_formula_structural       Pd3Hg6
_chemical_formula_sum              "Pd3 Hg6"
_cell_length_a       3.10469
_cell_length_b       3.10469
_cell_length_c       40.6233
_cell_angle_alpha    90
_cell_angle_beta     90
_cell_angle_gamma    120

_space_group_name_H-M_alt    "P 1"
_space_group_IT_number       1

loop_
  _space_group_symop_operation_xyz
  'x, y, z'

loop_
  _atom_site_type_symbol
  _atom_site_label
  _atom_site_symmetry_multiplicity
  _atom_site_fract_x
  _atom_site_fract_y
  _atom_site_fract_z
  _atom_site_occupancy
  Pd  Pd1       1.0  0.66667  0.33333  0.00000  1.0000
  Pd  Pd2       1.0  0.33333  0.66667  0.76721  1.0000
  Pd  Pd3       1.0  0.33333  0.66667  0.23279  1.0000
  Hg  Hg1       1.0  0.33333  0.66667  0.05533  1.0000
  Hg  Hg2       1.0  0.66667  0.33333  0.82251  1.0000
  Hg  Hg3       1.0  0.66667  0.33333  0.28739  1.0000
  Hg  Hg4       1.0  0.33333  0.66667  0.94467  1.0000
  Hg  Hg5       1.0  0.66667  0.33333  0.71261  1.0000
  Hg  Hg6       1.0  0.66667  0.33333  0.17749  1.0000
