data_image0
_chemical_formula_structural       Hg24Pd8
_chemical_formula_sum              "Hg24 Pd8"
_cell_length_a       10.6604
_cell_length_b       10.6604
_cell_length_c       10.57
_cell_angle_alpha    90
_cell_angle_beta     90
_cell_angle_gamma    90

_space_group_name_H-M_alt    "P 1"
_space_group_IT_number       1

loop_
  _space_group_symop_operation_xyz
  'x, y, z'

loop_
  _atom_site_type_symbol
  _atom_site_label
  _atom_site_symmetry_multiplicity
  _atom_site_fract_x
  _atom_site_fract_y
  _atom_site_fract_z
  _atom_site_occupancy
  Hg  Hg1       1.0  0.25023  0.50000  0.50000  1.0000
  Hg  Hg2       1.0  0.74977  0.50000  0.50000  1.0000
  Hg  Hg3       1.0  0.50000  0.74977  0.50000  1.0000
  Hg  Hg4       1.0  0.50000  0.25023  0.50000  1.0000
  Hg  Hg5       1.0  0.00000  0.50000  0.74833  1.0000
  Hg  Hg6       1.0  0.50000  0.00000  0.74833  1.0000
  Hg  Hg7       1.0  0.00000  0.50000  0.25167  1.0000
  Hg  Hg8       1.0  0.50000  0.00000  0.25167  1.0000
  Hg  Hg9       1.0  0.24795  0.00000  0.00000  1.0000
  Hg  Hg10      1.0  0.75205  0.00000  0.00000  1.0000
  Hg  Hg11      1.0  0.00000  0.75205  0.00000  1.0000
  Hg  Hg12      1.0  0.00000  0.24795  0.00000  1.0000
  Hg  Hg13      1.0  0.25245  0.50000  0.00000  1.0000
  Hg  Hg14      1.0  0.74755  0.50000  0.00000  1.0000
  Hg  Hg15      1.0  0.50000  0.74755  0.00000  1.0000
  Hg  Hg16      1.0  0.50000  0.25245  0.00000  1.0000
  Hg  Hg17      1.0  0.23828  0.23828  0.73034  1.0000
  Hg  Hg18      1.0  0.76172  0.76172  0.73034  1.0000
  Hg  Hg19      1.0  0.23828  0.76172  0.73034  1.0000
  Hg  Hg20      1.0  0.76172  0.23828  0.73034  1.0000
  Hg  Hg21      1.0  0.76172  0.76172  0.26966  1.0000
  Hg  Hg22      1.0  0.23828  0.23828  0.26966  1.0000
  Hg  Hg23      1.0  0.76172  0.23828  0.26966  1.0000
  Hg  Hg24      1.0  0.23828  0.76172  0.26966  1.0000
  Pd  Pd1       1.0  0.00000  0.00000  0.00000  1.0000
  Pd  Pd2       1.0  0.00000  0.00000  0.50000  1.0000
  Pd  Pd3       1.0  0.50000  0.50000  0.00000  1.0000
  Pd  Pd4       1.0  0.50000  0.50000  0.50000  1.0000
  Pd  Pd5       1.0  0.00000  0.50000  0.50000  1.0000
  Pd  Pd6       1.0  0.50000  0.00000  0.50000  1.0000
  Pd  Pd7       1.0  0.00000  0.50000  0.00000  1.0000
  Pd  Pd8       1.0  0.50000  0.00000  0.00000  1.0000
