data_image0
_chemical_formula_structural       Pd2Hg4
_chemical_formula_sum              "Pd2 Hg4"
_cell_length_a       3.21645
_cell_length_b       4.99302
_cell_length_c       7.95634
_cell_angle_alpha    70.2454
_cell_angle_beta     90
_cell_angle_gamma    90

_space_group_name_H-M_alt    "P 1"
_space_group_IT_number       1

loop_
  _space_group_symop_operation_xyz
  'x, y, z'

loop_
  _atom_site_type_symbol
  _atom_site_label
  _atom_site_symmetry_multiplicity
  _atom_site_fract_x
  _atom_site_fract_y
  _atom_site_fract_z
  _atom_site_occupancy
  Pd  Pd1       1.0  0.50000  0.25814  0.64828  1.0000
  Pd  Pd2       1.0  0.50000  0.51028  0.02323  1.0000
  Hg  Hg1       1.0  0.00000  0.71771  0.69933  1.0000
  Hg  Hg2       1.0  0.00000  0.22279  0.34814  1.0000
  Hg  Hg3       1.0  0.00000  0.05081  0.96599  1.0000
  Hg  Hg4       1.0  0.50000  0.74027  0.31503  1.0000
