data_image0
_chemical_formula_structural       Pd2N6
_chemical_formula_sum              "Pd2 N6"
_cell_length_a       4.5966
_cell_length_b       6.36368
_cell_length_c       4.84539
_cell_angle_alpha    53.7117
_cell_angle_beta     69.2788
_cell_angle_gamma    52.8996

_space_group_name_H-M_alt    "P 1"
_space_group_IT_number       1

loop_
  _space_group_symop_operation_xyz
  'x, y, z'

loop_
  _atom_site_type_symbol
  _atom_site_label
  _atom_site_symmetry_multiplicity
  _atom_site_fract_x
  _atom_site_fract_y
  _atom_site_fract_z
  _atom_site_occupancy
  Pd  Pd1       1.0  0.68619  0.60412  0.59229  1.0000
  Pd  Pd2       1.0  0.31381  0.39588  0.40771  1.0000
  N   N1        1.0  0.64836  0.87720  0.08705  1.0000
  N   N2        1.0  0.35164  0.12280  0.91295  1.0000
  N   N3        1.0  0.01243  0.22354  0.04215  1.0000
  N   N4        1.0  0.98757  0.77646  0.95785  1.0000
  N   N5        1.0  0.11085  0.87959  0.63300  1.0000
  N   N6        1.0  0.88915  0.12041  0.36700  1.0000
