data_image0
_chemical_formula_structural       PdN7
_chemical_formula_sum              "Pd1 N7"
_cell_length_a       2.51656
_cell_length_b       2.51656
_cell_length_c       10.6585
_cell_angle_alpha    90
_cell_angle_beta     90
_cell_angle_gamma    90

_space_group_name_H-M_alt    "P 1"
_space_group_IT_number       1

loop_
  _space_group_symop_operation_xyz
  'x, y, z'

loop_
  _atom_site_type_symbol
  _atom_site_label
  _atom_site_symmetry_multiplicity
  _atom_site_fract_x
  _atom_site_fract_y
  _atom_site_fract_z
  _atom_site_occupancy
  Pd  Pd1       1.0  0.00000  0.00000  0.50000  1.0000
  N   N1        1.0  0.00000  0.00000  0.00000  1.0000
  N   N2        1.0  0.00000  0.50000  0.13131  1.0000
  N   N3        1.0  0.50000  0.00000  0.86869  1.0000
  N   N4        1.0  0.00000  0.50000  0.68502  1.0000
  N   N5        1.0  0.50000  0.00000  0.31498  1.0000
  N   N6        1.0  0.50000  0.50000  0.23550  1.0000
  N   N7        1.0  0.50000  0.50000  0.76450  1.0000
