data_image0
_chemical_formula_structural       Hg4Pd4
_chemical_formula_sum              "Hg4 Pd4"
_cell_length_a       5.59672
_cell_length_b       5.59672
_cell_length_c       5.38241
_cell_angle_alpha    83.2906
_cell_angle_beta     83.2906
_cell_angle_gamma    113.589

_space_group_name_H-M_alt    "P 1"
_space_group_IT_number       1

loop_
  _space_group_symop_operation_xyz
  'x, y, z'

loop_
  _atom_site_type_symbol
  _atom_site_label
  _atom_site_symmetry_multiplicity
  _atom_site_fract_x
  _atom_site_fract_y
  _atom_site_fract_z
  _atom_site_occupancy
  Hg  Hg1       1.0  0.92165  0.92165  0.98784  1.0000
  Hg  Hg2       1.0  0.42237  0.42237  0.00042  1.0000
  Hg  Hg3       1.0  0.78893  0.27877  0.41688  1.0000
  Hg  Hg4       1.0  0.27877  0.78893  0.41688  1.0000
  Pd  Pd1       1.0  0.75516  0.75516  0.52359  1.0000
  Pd  Pd2       1.0  0.26945  0.26945  0.53097  1.0000
  Pd  Pd3       1.0  0.44315  0.94399  0.88394  1.0000
  Pd  Pd4       1.0  0.94399  0.44315  0.88394  1.0000
