data_image0
_chemical_formula_structural       PdHg4
_chemical_formula_sum              "Pd1 Hg4"
_cell_length_a       8.44659
_cell_length_b       8.44659
_cell_length_c       8.44659
_cell_angle_alpha    109.471
_cell_angle_beta     109.471
_cell_angle_gamma    109.471

_space_group_name_H-M_alt    "P 1"
_space_group_IT_number       1

loop_
  _space_group_symop_operation_xyz
  'x, y, z'

loop_
  _atom_site_type_symbol
  _atom_site_label
  _atom_site_symmetry_multiplicity
  _atom_site_fract_x
  _atom_site_fract_y
  _atom_site_fract_z
  _atom_site_occupancy
  Pd  Pd1       1.0  0.00000  0.00000  0.00000  1.0000
  Hg  Hg1       1.0  0.68167  0.68167  0.68167  1.0000
  Hg  Hg2       1.0  0.00000  0.00000  0.31833  1.0000
  Hg  Hg3       1.0  0.31833  0.00000  0.00000  1.0000
  Hg  Hg4       1.0  0.00000  0.31833  0.00000  1.0000
