data_image0
_chemical_formula_structural       Pd2N46
_chemical_formula_sum              "Pd2 N46"
_cell_length_a       8.34806
_cell_length_b       8.34806
_cell_length_c       8.34806
_cell_angle_alpha    90
_cell_angle_beta     90
_cell_angle_gamma    90

_space_group_name_H-M_alt    "P 1"
_space_group_IT_number       1

loop_
  _space_group_symop_operation_xyz
  'x, y, z'

loop_
  _atom_site_type_symbol
  _atom_site_label
  _atom_site_symmetry_multiplicity
  _atom_site_fract_x
  _atom_site_fract_y
  _atom_site_fract_z
  _atom_site_occupancy
  Pd  Pd1       1.0  0.50000  0.50000  0.50000  1.0000
  Pd  Pd2       1.0  0.00000  0.00000  0.00000  1.0000
  N   N1        1.0  0.00000  0.50000  0.75000  1.0000
  N   N2        1.0  0.50000  0.25000  0.00000  1.0000
  N   N3        1.0  0.75000  0.00000  0.50000  1.0000
  N   N4        1.0  0.00000  0.50000  0.25000  1.0000
  N   N5        1.0  0.50000  0.75000  0.00000  1.0000
  N   N6        1.0  0.25000  0.00000  0.50000  1.0000
  N   N7        1.0  0.71530  0.28470  0.71530  1.0000
  N   N8        1.0  0.28470  0.71530  0.28470  1.0000
  N   N9        1.0  0.71530  0.71530  0.28470  1.0000
  N   N10       1.0  0.28470  0.28470  0.71530  1.0000
  N   N11       1.0  0.28470  0.71530  0.71530  1.0000
  N   N12       1.0  0.71530  0.28470  0.28470  1.0000
  N   N13       1.0  0.28470  0.28470  0.28470  1.0000
  N   N14       1.0  0.71530  0.71530  0.71530  1.0000
  N   N15       1.0  0.21530  0.21530  0.78470  1.0000
  N   N16       1.0  0.78470  0.78470  0.21530  1.0000
  N   N17       1.0  0.21530  0.78470  0.21530  1.0000
  N   N18       1.0  0.78470  0.21530  0.78470  1.0000
  N   N19       1.0  0.78470  0.21530  0.21530  1.0000
  N   N20       1.0  0.21530  0.78470  0.78470  1.0000
  N   N21       1.0  0.78470  0.78470  0.78470  1.0000
  N   N22       1.0  0.21530  0.21530  0.21530  1.0000
  N   N23       1.0  0.62257  0.10551  0.50000  1.0000
  N   N24       1.0  0.89449  0.50000  0.62257  1.0000
  N   N25       1.0  0.50000  0.37743  0.89449  1.0000
  N   N26       1.0  0.37743  0.89449  0.50000  1.0000
  N   N27       1.0  0.10551  0.50000  0.37743  1.0000
  N   N28       1.0  0.50000  0.62257  0.10551  1.0000
  N   N29       1.0  0.62257  0.89449  0.50000  1.0000
  N   N30       1.0  0.89449  0.50000  0.37743  1.0000
  N   N31       1.0  0.37743  0.10551  0.50000  1.0000
  N   N32       1.0  0.10551  0.50000  0.62257  1.0000
  N   N33       1.0  0.50000  0.62257  0.89449  1.0000
  N   N34       1.0  0.50000  0.37743  0.10551  1.0000
  N   N35       1.0  0.12257  0.00000  0.60551  1.0000
  N   N36       1.0  0.39449  0.12257  0.00000  1.0000
  N   N37       1.0  0.00000  0.39449  0.87743  1.0000
  N   N38       1.0  0.87743  0.00000  0.39449  1.0000
  N   N39       1.0  0.60551  0.87743  0.00000  1.0000
  N   N40       1.0  0.00000  0.60551  0.12257  1.0000
  N   N41       1.0  0.12257  0.00000  0.39449  1.0000
  N   N42       1.0  0.39449  0.87743  0.00000  1.0000
  N   N43       1.0  0.87743  0.00000  0.60551  1.0000
  N   N44       1.0  0.60551  0.12257  0.00000  1.0000
  N   N45       1.0  0.00000  0.39449  0.12257  1.0000
  N   N46       1.0  0.00000  0.60551  0.87743  1.0000
