data_image0
_chemical_formula_structural       Hg2Pd2
_chemical_formula_sum              "Hg2 Pd2"
_cell_length_a       9.64316
_cell_length_b       9.64316
_cell_length_c       9.64316
_cell_angle_alpha    18.4126
_cell_angle_beta     18.4126
_cell_angle_gamma    18.4126

_space_group_name_H-M_alt    "P 1"
_space_group_IT_number       1

loop_
  _space_group_symop_operation_xyz
  'x, y, z'

loop_
  _atom_site_type_symbol
  _atom_site_label
  _atom_site_symmetry_multiplicity
  _atom_site_fract_x
  _atom_site_fract_y
  _atom_site_fract_z
  _atom_site_occupancy
  Hg  Hg1       1.0  0.10648  0.10648  0.10648  1.0000
  Hg  Hg2       1.0  0.00581  0.00581  0.00581  1.0000
  Pd  Pd1       1.0  0.59417  0.59417  0.59417  1.0000
  Pd  Pd2       1.0  0.85123  0.85123  0.85123  1.0000
