data_image0
_chemical_formula_structural       Pd2N12
_chemical_formula_sum              "Pd2 N12"
_cell_length_a       8.4291
_cell_length_b       8.4291
_cell_length_c       24.1401
_cell_angle_alpha    89.703
_cell_angle_beta     89.703
_cell_angle_gamma    126.872

_space_group_name_H-M_alt    "P 1"
_space_group_IT_number       1

loop_
  _space_group_symop_operation_xyz
  'x, y, z'

loop_
  _atom_site_type_symbol
  _atom_site_label
  _atom_site_symmetry_multiplicity
  _atom_site_fract_x
  _atom_site_fract_y
  _atom_site_fract_z
  _atom_site_occupancy
  Pd  Pd1       1.0  0.00000  0.50000  0.00000  1.0000
  Pd  Pd2       1.0  0.50000  0.00000  0.50000  1.0000
  N   N1        1.0  0.12664  0.25455  0.25022  1.0000
  N   N2        1.0  0.87336  0.74545  0.74978  1.0000
  N   N3        1.0  0.70602  0.30201  0.99761  1.0000
  N   N4        1.0  0.74545  0.87336  0.24978  1.0000
  N   N5        1.0  0.29398  0.69799  0.00239  1.0000
  N   N6        1.0  0.25455  0.12664  0.75022  1.0000
  N   N7        1.0  0.74824  0.49830  0.37103  1.0000
  N   N8        1.0  0.69799  0.29398  0.50239  1.0000
  N   N9        1.0  0.25176  0.50170  0.62897  1.0000
  N   N10       1.0  0.30201  0.70602  0.49761  1.0000
  N   N11       1.0  0.50170  0.25176  0.12897  1.0000
  N   N12       1.0  0.49830  0.74824  0.87103  1.0000
