data_image0
_chemical_formula_structural       Pd4Hg16
_chemical_formula_sum              "Pd4 Hg16"
_cell_length_a       9.97726
_cell_length_b       9.97726
_cell_length_c       8.14388
_cell_angle_alpha    90
_cell_angle_beta     90
_cell_angle_gamma    90

_space_group_name_H-M_alt    "P 1"
_space_group_IT_number       1

loop_
  _space_group_symop_operation_xyz
  'x, y, z'

loop_
  _atom_site_type_symbol
  _atom_site_label
  _atom_site_symmetry_multiplicity
  _atom_site_fract_x
  _atom_site_fract_y
  _atom_site_fract_z
  _atom_site_occupancy
  Pd  Pd1       1.0  0.15759  0.65759  0.00000  1.0000
  Pd  Pd2       1.0  0.65759  0.84241  0.00000  1.0000
  Pd  Pd3       1.0  0.34241  0.15759  0.00000  1.0000
  Pd  Pd4       1.0  0.84241  0.34241  0.00000  1.0000
  Hg  Hg1       1.0  0.28965  0.42307  0.00000  1.0000
  Hg  Hg2       1.0  0.71035  0.57693  0.00000  1.0000
  Hg  Hg3       1.0  0.57693  0.28965  0.00000  1.0000
  Hg  Hg4       1.0  0.42307  0.71035  0.00000  1.0000
  Hg  Hg5       1.0  0.00000  0.00000  0.31457  1.0000
  Hg  Hg6       1.0  0.50000  0.50000  0.68543  1.0000
  Hg  Hg7       1.0  0.00000  0.00000  0.68543  1.0000
  Hg  Hg8       1.0  0.50000  0.50000  0.31457  1.0000
  Hg  Hg9       1.0  0.62345  0.12345  0.50000  1.0000
  Hg  Hg10      1.0  0.12345  0.37655  0.50000  1.0000
  Hg  Hg11      1.0  0.87655  0.62345  0.50000  1.0000
  Hg  Hg12      1.0  0.37655  0.87655  0.50000  1.0000
  Hg  Hg13      1.0  0.07693  0.21035  0.00000  1.0000
  Hg  Hg14      1.0  0.21035  0.92307  0.00000  1.0000
  Hg  Hg15      1.0  0.78965  0.07693  0.00000  1.0000
  Hg  Hg16      1.0  0.92307  0.78965  0.00000  1.0000
