data_image0
_chemical_formula_structural       Hg14Pd8
_chemical_formula_sum              "Hg14 Pd8"
_cell_length_a       9.39355
_cell_length_b       9.39355
_cell_length_c       5.8232
_cell_angle_alpha    90
_cell_angle_beta     90
_cell_angle_gamma    120

_space_group_name_H-M_alt    "P 1"
_space_group_IT_number       1

loop_
  _space_group_symop_operation_xyz
  'x, y, z'

loop_
  _atom_site_type_symbol
  _atom_site_label
  _atom_site_symmetry_multiplicity
  _atom_site_fract_x
  _atom_site_fract_y
  _atom_site_fract_z
  _atom_site_occupancy
  Hg  Hg1       1.0  0.15999  0.31997  0.25000  1.0000
  Hg  Hg2       1.0  0.84001  0.68003  0.75000  1.0000
  Hg  Hg3       1.0  0.68003  0.84001  0.25000  1.0000
  Hg  Hg4       1.0  0.31997  0.15999  0.75000  1.0000
  Hg  Hg5       1.0  0.15999  0.84001  0.25000  1.0000
  Hg  Hg6       1.0  0.84001  0.15999  0.75000  1.0000
  Hg  Hg7       1.0  0.00000  0.00000  0.00000  1.0000
  Hg  Hg8       1.0  0.00000  0.00000  0.50000  1.0000
  Hg  Hg9       1.0  0.50000  0.00000  0.00000  1.0000
  Hg  Hg10      1.0  0.00000  0.50000  0.00000  1.0000
  Hg  Hg11      1.0  0.50000  0.00000  0.50000  1.0000
  Hg  Hg12      1.0  0.50000  0.50000  0.00000  1.0000
  Hg  Hg13      1.0  0.00000  0.50000  0.50000  1.0000
  Hg  Hg14      1.0  0.50000  0.50000  0.50000  1.0000
  Pd  Pd1       1.0  0.80545  0.61090  0.25000  1.0000
  Pd  Pd2       1.0  0.19455  0.38910  0.75000  1.0000
  Pd  Pd3       1.0  0.38910  0.19455  0.25000  1.0000
  Pd  Pd4       1.0  0.61090  0.80545  0.75000  1.0000
  Pd  Pd5       1.0  0.80545  0.19455  0.25000  1.0000
  Pd  Pd6       1.0  0.19455  0.80545  0.75000  1.0000
  Pd  Pd7       1.0  0.33333  0.66667  0.25000  1.0000
  Pd  Pd8       1.0  0.66667  0.33333  0.75000  1.0000
