data_image0
_chemical_formula_structural       Pd3Hg20
_chemical_formula_sum              "Pd3 Hg20"
_cell_length_a       19.0781
_cell_length_b       19.0781
_cell_length_c       6.76416
_cell_angle_alpha    90
_cell_angle_beta     90
_cell_angle_gamma    145.923

_space_group_name_H-M_alt    "P 1"
_space_group_IT_number       1

loop_
  _space_group_symop_operation_xyz
  'x, y, z'

loop_
  _atom_site_type_symbol
  _atom_site_label
  _atom_site_symmetry_multiplicity
  _atom_site_fract_x
  _atom_site_fract_y
  _atom_site_fract_z
  _atom_site_occupancy
  Pd  Pd1       1.0  0.36784  0.63216  0.00000  1.0000
  Pd  Pd2       1.0  0.63216  0.36784  0.00000  1.0000
  Pd  Pd3       1.0  0.00000  0.00000  0.00000  1.0000
  Hg  Hg1       1.0  0.74232  0.25768  0.50000  1.0000
  Hg  Hg2       1.0  0.25768  0.74232  0.50000  1.0000
  Hg  Hg3       1.0  0.44754  0.05250  0.50000  1.0000
  Hg  Hg4       1.0  0.17640  0.82360  0.22913  1.0000
  Hg  Hg5       1.0  0.82360  0.17640  0.22913  1.0000
  Hg  Hg6       1.0  0.82360  0.17640  0.77087  1.0000
  Hg  Hg7       1.0  0.17640  0.82360  0.77087  1.0000
  Hg  Hg8       1.0  0.50000  0.50000  0.21840  1.0000
  Hg  Hg9       1.0  0.50000  0.50000  0.78160  1.0000
  Hg  Hg10      1.0  0.71341  0.61119  0.50000  1.0000
  Hg  Hg11      1.0  0.28659  0.38881  0.50000  1.0000
  Hg  Hg12      1.0  0.61119  0.71341  0.50000  1.0000
  Hg  Hg13      1.0  0.38881  0.28659  0.50000  1.0000
  Hg  Hg14      1.0  0.96541  0.73905  0.50000  1.0000
  Hg  Hg15      1.0  0.03459  0.26095  0.50000  1.0000
  Hg  Hg16      1.0  0.73905  0.96541  0.50000  1.0000
  Hg  Hg17      1.0  0.26095  0.03459  0.50000  1.0000
  Hg  Hg18      1.0  0.94750  0.55246  0.50000  1.0000
  Hg  Hg19      1.0  0.05250  0.44754  0.50000  1.0000
  Hg  Hg20      1.0  0.55246  0.94750  0.50000  1.0000
