data_image0
_chemical_formula_structural       Pd2Hg6
_chemical_formula_sum              "Pd2 Hg6"
_cell_length_a       12.8996
_cell_length_b       12.8996
_cell_length_c       5.44427
_cell_angle_alpha    83.4696
_cell_angle_beta     83.4696
_cell_angle_gamma    87.9759

_space_group_name_H-M_alt    "P 1"
_space_group_IT_number       1

loop_
  _space_group_symop_operation_xyz
  'x, y, z'

loop_
  _atom_site_type_symbol
  _atom_site_label
  _atom_site_symmetry_multiplicity
  _atom_site_fract_x
  _atom_site_fract_y
  _atom_site_fract_z
  _atom_site_occupancy
  Pd  Pd1       1.0  0.00000  0.00000  0.50000  1.0000
  Pd  Pd2       1.0  0.00000  0.00000  0.00000  1.0000
  Hg  Hg1       1.0  0.13413  0.48373  0.83532  1.0000
  Hg  Hg2       1.0  0.87153  0.12847  0.25000  1.0000
  Hg  Hg3       1.0  0.51627  0.86587  0.66468  1.0000
  Hg  Hg4       1.0  0.86587  0.51627  0.16468  1.0000
  Hg  Hg5       1.0  0.12847  0.87153  0.75000  1.0000
  Hg  Hg6       1.0  0.48373  0.13413  0.33532  1.0000
