data_image0
_chemical_formula_structural       Hg20Pd18
_chemical_formula_sum              "Hg20 Pd18"
_cell_length_a       11.814
_cell_length_b       11.814
_cell_length_c       8.01216
_cell_angle_alpha    64.1042
_cell_angle_beta     64.1042
_cell_angle_gamma    46.9081

_space_group_name_H-M_alt    "P 1"
_space_group_IT_number       1

loop_
  _space_group_symop_operation_xyz
  'x, y, z'

loop_
  _atom_site_type_symbol
  _atom_site_label
  _atom_site_symmetry_multiplicity
  _atom_site_fract_x
  _atom_site_fract_y
  _atom_site_fract_z
  _atom_site_occupancy
  Hg  Hg1       1.0  0.22742  0.46745  0.95397  1.0000
  Hg  Hg2       1.0  0.72845  0.98536  0.93586  1.0000
  Hg  Hg3       1.0  0.58152  0.31763  0.65624  1.0000
  Hg  Hg4       1.0  0.41848  0.68237  0.34376  1.0000
  Hg  Hg5       1.0  0.27155  0.01464  0.06414  1.0000
  Hg  Hg6       1.0  0.07257  0.83857  0.63411  1.0000
  Hg  Hg7       1.0  0.12594  0.37766  0.75403  1.0000
  Hg  Hg8       1.0  0.92743  0.16143  0.36589  1.0000
  Hg  Hg9       1.0  0.98536  0.72845  0.43586  1.0000
  Hg  Hg10      1.0  0.77258  0.53255  0.04603  1.0000
  Hg  Hg11      1.0  0.62234  0.87406  0.74597  1.0000
  Hg  Hg12      1.0  0.83857  0.07257  0.13411  1.0000
  Hg  Hg13      1.0  0.46745  0.22742  0.45397  1.0000
  Hg  Hg14      1.0  0.68237  0.41848  0.84376  1.0000
  Hg  Hg15      1.0  0.53255  0.77258  0.54603  1.0000
  Hg  Hg16      1.0  0.31763  0.58152  0.15624  1.0000
  Hg  Hg17      1.0  0.37766  0.12594  0.25403  1.0000
  Hg  Hg18      1.0  0.16143  0.92743  0.86589  1.0000
  Hg  Hg19      1.0  0.01464  0.27155  0.56414  1.0000
  Hg  Hg20      1.0  0.87406  0.62234  0.24597  1.0000
  Pd  Pd1       1.0  0.07562  0.31420  0.16487  1.0000
  Pd  Pd2       1.0  0.92438  0.68580  0.83513  1.0000
  Pd  Pd3       1.0  0.57412  0.83078  0.14231  1.0000
  Pd  Pd4       1.0  0.76606  0.02434  0.54631  1.0000
  Pd  Pd5       1.0  0.42588  0.16922  0.85769  1.0000
  Pd  Pd6       1.0  0.62674  0.37326  0.25000  1.0000
  Pd  Pd7       1.0  0.27787  0.52357  0.55527  1.0000
  Pd  Pd8       1.0  0.47643  0.72213  0.94473  1.0000
  Pd  Pd9       1.0  0.31420  0.07562  0.66487  1.0000
  Pd  Pd10      1.0  0.16922  0.42588  0.35769  1.0000
  Pd  Pd11      1.0  0.97566  0.23394  0.95369  1.0000
  Pd  Pd12      1.0  0.83078  0.57412  0.64231  1.0000
  Pd  Pd13      1.0  0.02434  0.76606  0.04631  1.0000
  Pd  Pd14      1.0  0.68580  0.92438  0.33513  1.0000
  Pd  Pd15      1.0  0.72213  0.47643  0.44473  1.0000
  Pd  Pd16      1.0  0.52357  0.27787  0.05527  1.0000
  Pd  Pd17      1.0  0.37326  0.62674  0.75000  1.0000
  Pd  Pd18      1.0  0.23394  0.97566  0.45369  1.0000
