data_image0
_chemical_formula_structural       Pd6Hg9
_chemical_formula_sum              "Pd6 Hg9"
_cell_length_a       8.73497
_cell_length_b       8.73497
_cell_length_c       8.73497
_cell_angle_alpha    94.8552
_cell_angle_beta     94.8552
_cell_angle_gamma    146.173

_space_group_name_H-M_alt    "P 1"
_space_group_IT_number       1

loop_
  _space_group_symop_operation_xyz
  'x, y, z'

loop_
  _atom_site_type_symbol
  _atom_site_label
  _atom_site_symmetry_multiplicity
  _atom_site_fract_x
  _atom_site_fract_y
  _atom_site_fract_z
  _atom_site_occupancy
  Pd  Pd1       1.0  0.37350  0.87350  0.50000  1.0000
  Pd  Pd2       1.0  0.87350  0.37350  0.50000  1.0000
  Pd  Pd3       1.0  0.58699  0.75132  0.16433  1.0000
  Pd  Pd4       1.0  0.58699  0.42266  0.83567  1.0000
  Pd  Pd5       1.0  0.75132  0.58699  0.16433  1.0000
  Pd  Pd6       1.0  0.42266  0.58699  0.83567  1.0000
  Hg  Hg1       1.0  0.11284  0.11284  0.00000  1.0000
  Hg  Hg2       1.0  0.55565  0.98177  0.00000  1.0000
  Hg  Hg3       1.0  0.98177  0.55565  0.00000  1.0000
  Hg  Hg4       1.0  0.55565  0.55565  0.57389  1.0000
  Hg  Hg5       1.0  0.98177  0.98177  0.42611  1.0000
  Hg  Hg6       1.0  0.11684  0.40577  0.28893  1.0000
  Hg  Hg7       1.0  0.11684  0.82791  0.71107  1.0000
  Hg  Hg8       1.0  0.40577  0.11684  0.28893  1.0000
  Hg  Hg9       1.0  0.82791  0.11684  0.71107  1.0000
