data_image0
_chemical_formula_structural       PdN7
_chemical_formula_sum              "Pd1 N7"
_cell_length_a       3.22308
_cell_length_b       3.22308
_cell_length_c       12.4087
_cell_angle_alpha    90
_cell_angle_beta     90
_cell_angle_gamma    120

_space_group_name_H-M_alt    "P 1"
_space_group_IT_number       1

loop_
  _space_group_symop_operation_xyz
  'x, y, z'

loop_
  _atom_site_type_symbol
  _atom_site_label
  _atom_site_symmetry_multiplicity
  _atom_site_fract_x
  _atom_site_fract_y
  _atom_site_fract_z
  _atom_site_occupancy
  Pd  Pd1       1.0  0.00000  0.00000  0.35816  1.0000
  N   N1        1.0  0.00000  0.00000  0.50007  1.0000
  N   N2        1.0  0.33333  0.66667  0.94859  1.0000
  N   N3        1.0  0.33333  0.66667  0.85867  1.0000
  N   N4        1.0  0.66667  0.33333  0.70516  1.0000
  N   N5        1.0  0.66667  0.33333  0.61469  1.0000
  N   N6        1.0  0.66667  0.33333  0.10320  1.0000
  N   N7        1.0  0.66667  0.33333  0.19394  1.0000
