data_image0
_chemical_formula_structural       Pd2N4
_chemical_formula_sum              "Pd2 N4"
_cell_length_a       5.99709
_cell_length_b       5.99709
_cell_length_c       5.99709
_cell_angle_alpha    157.368
_cell_angle_beta     105.773
_cell_angle_gamma    78.7659

_space_group_name_H-M_alt    "P 1"
_space_group_IT_number       1

loop_
  _space_group_symop_operation_xyz
  'x, y, z'

loop_
  _atom_site_type_symbol
  _atom_site_label
  _atom_site_symmetry_multiplicity
  _atom_site_fract_x
  _atom_site_fract_y
  _atom_site_fract_z
  _atom_site_occupancy
  Pd  Pd1       1.0  0.64320  0.64320  0.00000  1.0000
  Pd  Pd2       1.0  0.35680  0.35680  0.00000  1.0000
  N   N1        1.0  0.19795  0.00000  0.19795  1.0000
  N   N2        1.0  0.80205  0.00000  0.80205  1.0000
  N   N3        1.0  0.90783  0.50000  0.40783  1.0000
  N   N4        1.0  0.09217  0.50000  0.59217  1.0000
