data_image0
_chemical_formula_structural       N6Pd2
_chemical_formula_sum              "N6 Pd2"
_cell_length_a       4.92807
_cell_length_b       4.92807
_cell_length_c       4.92807
_cell_angle_alpha    82.6478
_cell_angle_beta     82.6478
_cell_angle_gamma    82.6478

_space_group_name_H-M_alt    "P 1"
_space_group_IT_number       1

loop_
  _space_group_symop_operation_xyz
  'x, y, z'

loop_
  _atom_site_type_symbol
  _atom_site_label
  _atom_site_symmetry_multiplicity
  _atom_site_fract_x
  _atom_site_fract_y
  _atom_site_fract_z
  _atom_site_occupancy
  N   N1        1.0  0.41264  0.58736  0.00000  1.0000
  N   N2        1.0  1.00000  0.41264  0.58736  1.0000
  N   N3        1.0  0.58736  0.00000  0.41264  1.0000
  N   N4        1.0  0.00000  0.58736  0.41264  1.0000
  N   N5        1.0  0.41264  1.00000  0.58736  1.0000
  N   N6        1.0  0.58736  0.41264  0.00000  1.0000
  Pd  Pd1       1.0  0.85609  0.85609  0.85609  1.0000
  Pd  Pd2       1.0  0.14391  0.14391  0.14391  1.0000
