data_image0
_chemical_formula_structural       Hg15Pd12
_chemical_formula_sum              "Hg15 Pd12"
_cell_length_a       7.57264
_cell_length_b       7.57264
_cell_length_c       11.8375
_cell_angle_alpha    92.5521
_cell_angle_beta     92.5521
_cell_angle_gamma    60.1066

_space_group_name_H-M_alt    "P 1"
_space_group_IT_number       1

loop_
  _space_group_symop_operation_xyz
  'x, y, z'

loop_
  _atom_site_type_symbol
  _atom_site_label
  _atom_site_symmetry_multiplicity
  _atom_site_fract_x
  _atom_site_fract_y
  _atom_site_fract_z
  _atom_site_occupancy
  Hg  Hg1       1.0  0.69239  0.30761  0.00000  1.0000
  Hg  Hg2       1.0  0.02285  0.96863  0.37981  1.0000
  Hg  Hg3       1.0  0.03137  0.97715  0.62019  1.0000
  Hg  Hg4       1.0  0.03267  0.94563  0.12579  1.0000
  Hg  Hg5       1.0  0.05437  0.96733  0.87421  1.0000
  Hg  Hg6       1.0  0.01154  0.31329  0.25036  1.0000
  Hg  Hg7       1.0  0.68671  0.98846  0.74964  1.0000
  Hg  Hg8       1.0  0.35912  0.31545  0.38093  1.0000
  Hg  Hg9       1.0  0.68455  0.64088  0.61907  1.0000
  Hg  Hg10      1.0  0.35388  0.31365  0.12683  1.0000
  Hg  Hg11      1.0  0.68635  0.64612  0.87317  1.0000
  Hg  Hg12      1.0  0.67126  0.67750  0.12765  1.0000
  Hg  Hg13      1.0  0.32250  0.32874  0.87235  1.0000
  Hg  Hg14      1.0  0.67033  0.65814  0.37965  1.0000
  Hg  Hg15      1.0  0.34186  0.32967  0.62035  1.0000
  Pd  Pd1       1.0  0.34250  0.65750  0.00000  1.0000
  Pd  Pd2       1.0  0.35221  0.64779  0.50000  1.0000
  Pd  Pd3       1.0  0.37053  0.96913  0.25792  1.0000
  Pd  Pd4       1.0  0.03087  0.62947  0.74208  1.0000
  Pd  Pd5       1.0  0.68248  0.96199  0.99615  1.0000
  Pd  Pd6       1.0  0.03801  0.31752  0.00385  1.0000
  Pd  Pd7       1.0  0.68534  0.98847  0.49927  1.0000
  Pd  Pd8       1.0  0.01153  0.31466  0.50073  1.0000
  Pd  Pd9       1.0  0.67017  0.29440  0.25757  1.0000
  Pd  Pd10      1.0  0.70560  0.32983  0.74243  1.0000
  Pd  Pd11      1.0  0.01827  0.66156  0.25445  1.0000
  Pd  Pd12      1.0  0.33844  0.98173  0.74555  1.0000
