data_image0
_chemical_formula_structural       Pd7Hg9
_chemical_formula_sum              "Pd7 Hg9"
_cell_length_a       7.31472
_cell_length_b       7.31472
_cell_length_c       7.31472
_cell_angle_alpha    107.482
_cell_angle_beta     107.482
_cell_angle_gamma    113.528

_space_group_name_H-M_alt    "P 1"
_space_group_IT_number       1

loop_
  _space_group_symop_operation_xyz
  'x, y, z'

loop_
  _atom_site_type_symbol
  _atom_site_label
  _atom_site_symmetry_multiplicity
  _atom_site_fract_x
  _atom_site_fract_y
  _atom_site_fract_z
  _atom_site_occupancy
  Pd  Pd1       1.0  0.50000  0.00000  0.50000  1.0000
  Pd  Pd2       1.0  0.00000  0.50000  0.50000  1.0000
  Pd  Pd3       1.0  0.50000  0.50000  0.00000  1.0000
  Pd  Pd4       1.0  0.24530  0.24530  0.49059  1.0000
  Pd  Pd5       1.0  0.75470  0.75470  0.50941  1.0000
  Pd  Pd6       1.0  0.24530  0.75470  0.00000  1.0000
  Pd  Pd7       1.0  0.75470  0.24530  0.00000  1.0000
  Hg  Hg1       1.0  0.51532  0.26100  0.25432  1.0000
  Hg  Hg2       1.0  0.48468  0.73900  0.74568  1.0000
  Hg  Hg3       1.0  0.00668  0.26100  0.74568  1.0000
  Hg  Hg4       1.0  0.26100  0.00668  0.74568  1.0000
  Hg  Hg5       1.0  0.99332  0.73900  0.25432  1.0000
  Hg  Hg6       1.0  0.73900  0.99332  0.25432  1.0000
  Hg  Hg7       1.0  0.26100  0.51532  0.25432  1.0000
  Hg  Hg8       1.0  0.73900  0.48468  0.74568  1.0000
  Hg  Hg9       1.0  0.00000  0.00000  0.00000  1.0000
