data_image0
_chemical_formula_structural       Hg29Pd2
_chemical_formula_sum              "Hg29 Pd2"
_cell_length_a       10.2828
_cell_length_b       10.2828
_cell_length_c       10.1906
_cell_angle_alpha    70.8226
_cell_angle_beta     70.8226
_cell_angle_gamma    106.561

_space_group_name_H-M_alt    "P 1"
_space_group_IT_number       1

loop_
  _space_group_symop_operation_xyz
  'x, y, z'

loop_
  _atom_site_type_symbol
  _atom_site_label
  _atom_site_symmetry_multiplicity
  _atom_site_fract_x
  _atom_site_fract_y
  _atom_site_fract_z
  _atom_site_occupancy
  Hg  Hg1       1.0  0.99825  0.99825  0.00229  1.0000
  Hg  Hg2       1.0  0.82404  0.62164  0.37662  1.0000
  Hg  Hg3       1.0  0.62164  0.82404  0.37662  1.0000
  Hg  Hg4       1.0  0.63065  0.63065  0.17749  1.0000
  Hg  Hg5       1.0  0.17778  0.80232  0.19782  1.0000
  Hg  Hg6       1.0  0.37102  0.99666  0.81865  1.0000
  Hg  Hg7       1.0  0.36994  0.18878  0.00311  1.0000
  Hg  Hg8       1.0  0.00417  0.18870  0.62123  1.0000
  Hg  Hg9       1.0  0.18870  0.00417  0.62123  1.0000
  Hg  Hg10      1.0  0.81199  0.81199  0.82110  1.0000
  Hg  Hg11      1.0  0.99666  0.37102  0.81865  1.0000
  Hg  Hg12      1.0  0.80232  0.17778  0.19782  1.0000
  Hg  Hg13      1.0  0.18878  0.36994  0.00311  1.0000
  Hg  Hg14      1.0  0.31335  0.60706  0.39335  1.0000
  Hg  Hg15      1.0  0.60706  0.31335  0.39335  1.0000
  Hg  Hg16      1.0  0.59705  0.59705  0.71556  1.0000
  Hg  Hg17      1.0  0.68106  0.29712  0.70845  1.0000
  Hg  Hg18      1.0  0.39305  0.00220  0.29086  1.0000
  Hg  Hg19      1.0  0.40049  0.68389  0.00094  1.0000
  Hg  Hg20      1.0  0.99781  0.70631  0.60878  1.0000
  Hg  Hg21      1.0  0.70631  0.99781  0.60878  1.0000
  Hg  Hg22      1.0  0.31947  0.31947  0.28441  1.0000
  Hg  Hg23      1.0  0.00220  0.39305  0.29086  1.0000
  Hg  Hg24      1.0  0.29712  0.68106  0.70845  1.0000
  Hg  Hg25      1.0  0.68389  0.40049  0.00094  1.0000
  Hg  Hg26      1.0  0.35717  0.35717  0.64458  1.0000
  Hg  Hg27      1.0  0.64744  0.00004  0.99702  1.0000
  Hg  Hg28      1.0  0.00048  0.00048  0.35021  1.0000
  Hg  Hg29      1.0  0.00004  0.64744  0.99702  1.0000
  Pd  Pd1       1.0  0.99548  0.47660  0.52335  1.0000
  Pd  Pd2       1.0  0.47660  0.99548  0.52335  1.0000
