data_image0
_chemical_formula_structural       Hg12Pd10
_chemical_formula_sum              "Hg12 Pd10"
_cell_length_a       7.88476
_cell_length_b       7.88476
_cell_length_c       9.53205
_cell_angle_alpha    72.1215
_cell_angle_beta     72.1215
_cell_angle_gamma    58.1072

_space_group_name_H-M_alt    "P 1"
_space_group_IT_number       1

loop_
  _space_group_symop_operation_xyz
  'x, y, z'

loop_
  _atom_site_type_symbol
  _atom_site_label
  _atom_site_symmetry_multiplicity
  _atom_site_fract_x
  _atom_site_fract_y
  _atom_site_fract_z
  _atom_site_occupancy
  Hg  Hg1       1.0  0.41228  0.36029  0.72673  1.0000
  Hg  Hg2       1.0  0.63971  0.58772  0.77327  1.0000
  Hg  Hg3       1.0  0.58772  0.63971  0.27327  1.0000
  Hg  Hg4       1.0  0.36029  0.41228  0.22673  1.0000
  Hg  Hg5       1.0  0.28493  0.14296  0.07500  1.0000
  Hg  Hg6       1.0  0.85704  0.71507  0.42500  1.0000
  Hg  Hg7       1.0  0.71507  0.85704  0.92500  1.0000
  Hg  Hg8       1.0  0.14296  0.28493  0.57500  1.0000
  Hg  Hg9       1.0  0.00000  0.00000  0.50000  1.0000
  Hg  Hg10      1.0  0.00000  0.00000  0.00000  1.0000
  Hg  Hg11      1.0  0.21519  0.78481  0.75000  1.0000
  Hg  Hg12      1.0  0.78481  0.21519  0.25000  1.0000
  Pd  Pd1       1.0  0.91492  0.40201  0.96982  1.0000
  Pd  Pd2       1.0  0.59799  0.08508  0.53018  1.0000
  Pd  Pd3       1.0  0.08508  0.59799  0.03018  1.0000
  Pd  Pd4       1.0  0.40201  0.91492  0.46982  1.0000
  Pd  Pd5       1.0  0.36690  0.00706  0.80254  1.0000
  Pd  Pd6       1.0  0.99294  0.63310  0.69746  1.0000
  Pd  Pd7       1.0  0.63310  0.99294  0.19746  1.0000
  Pd  Pd8       1.0  0.00706  0.36690  0.30254  1.0000
  Pd  Pd9       1.0  0.81840  0.18160  0.75000  1.0000
  Pd  Pd10      1.0  0.18160  0.81840  0.25000  1.0000
