data_image0
_chemical_formula_structural       Pd4N24
_chemical_formula_sum              "Pd4 N24"
_cell_length_a       5.12209
_cell_length_b       6.98736
_cell_length_c       10.4651
_cell_angle_alpha    90
_cell_angle_beta     90
_cell_angle_gamma    90

_space_group_name_H-M_alt    "P 1"
_space_group_IT_number       1

loop_
  _space_group_symop_operation_xyz
  'x, y, z'

loop_
  _atom_site_type_symbol
  _atom_site_label
  _atom_site_symmetry_multiplicity
  _atom_site_fract_x
  _atom_site_fract_y
  _atom_site_fract_z
  _atom_site_occupancy
  Pd  Pd1       1.0  0.25000  0.18227  0.84558  1.0000
  Pd  Pd2       1.0  0.25000  0.31773  0.34558  1.0000
  Pd  Pd3       1.0  0.75000  0.81773  0.15442  1.0000
  Pd  Pd4       1.0  0.75000  0.68227  0.65442  1.0000
  N   N1        1.0  0.25000  0.84530  0.05710  1.0000
  N   N2        1.0  0.25000  0.65470  0.55710  1.0000
  N   N3        1.0  0.75000  0.15470  0.94290  1.0000
  N   N4        1.0  0.75000  0.34530  0.44290  1.0000
  N   N5        1.0  0.25000  0.74693  0.81179  1.0000
  N   N6        1.0  0.25000  0.75307  0.31179  1.0000
  N   N7        1.0  0.75000  0.25307  0.18821  1.0000
  N   N8        1.0  0.75000  0.24693  0.68821  1.0000
  N   N9        1.0  0.25000  0.58797  0.82499  1.0000
  N   N10       1.0  0.25000  0.91203  0.32499  1.0000
  N   N11       1.0  0.75000  0.41203  0.17501  1.0000
  N   N12       1.0  0.75000  0.08797  0.67501  1.0000
  N   N13       1.0  0.25000  0.25575  0.64953  1.0000
  N   N14       1.0  0.25000  0.24425  0.14953  1.0000
  N   N15       1.0  0.75000  0.74425  0.35047  1.0000
  N   N16       1.0  0.75000  0.75575  0.85047  1.0000
  N   N17       1.0  0.25000  0.81259  0.57746  1.0000
  N   N18       1.0  0.25000  0.68741  0.07746  1.0000
  N   N19       1.0  0.75000  0.18741  0.42254  1.0000
  N   N20       1.0  0.75000  0.31259  0.92254  1.0000
  N   N21       1.0  0.25000  0.24818  0.54063  1.0000
  N   N22       1.0  0.25000  0.25182  0.04063  1.0000
  N   N23       1.0  0.75000  0.75182  0.45937  1.0000
  N   N24       1.0  0.75000  0.74818  0.95937  1.0000
