data_image0
_chemical_formula_structural       Pd4Hg8
_chemical_formula_sum              "Pd4 Hg8"
_cell_length_a       6.49713
_cell_length_b       6.49715
_cell_length_c       6.57831
_cell_angle_alpha    89.9965
_cell_angle_beta     89.9975
_cell_angle_gamma    90.0045

_space_group_name_H-M_alt    "P 1"
_space_group_IT_number       1

loop_
  _space_group_symop_operation_xyz
  'x, y, z'

loop_
  _atom_site_type_symbol
  _atom_site_label
  _atom_site_symmetry_multiplicity
  _atom_site_fract_x
  _atom_site_fract_y
  _atom_site_fract_z
  _atom_site_occupancy
  Pd  Pd1       1.0  0.49999  0.50000  1.00000  1.0000
  Pd  Pd2       1.0  0.00002  0.00001  0.00000  1.0000
  Pd  Pd3       1.0  0.99998  0.50000  0.49999  1.0000
  Pd  Pd4       1.0  0.50001  0.99999  0.50000  1.0000
  Hg  Hg1       1.0  0.25043  0.74956  0.75055  1.0000
  Hg  Hg2       1.0  0.74957  0.25044  0.75056  1.0000
  Hg  Hg3       1.0  0.75065  0.75066  0.74931  1.0000
  Hg  Hg4       1.0  0.24934  0.24935  0.74925  1.0000
  Hg  Hg5       1.0  0.74958  0.74957  0.24944  1.0000
  Hg  Hg6       1.0  0.75063  0.24933  0.25072  1.0000
  Hg  Hg7       1.0  0.24934  0.75064  0.25073  1.0000
  Hg  Hg8       1.0  0.25046  0.25044  0.24944  1.0000
