data_image0
_chemical_formula_structural       Hg4Pd4
_chemical_formula_sum              "Hg4 Pd4"
_cell_length_a       10.2082
_cell_length_b       10.2082
_cell_length_c       4.76891
_cell_angle_alpha    90
_cell_angle_beta     90
_cell_angle_gamma    162.571

_space_group_name_H-M_alt    "P 1"
_space_group_IT_number       1

loop_
  _space_group_symop_operation_xyz
  'x, y, z'

loop_
  _atom_site_type_symbol
  _atom_site_label
  _atom_site_symmetry_multiplicity
  _atom_site_fract_x
  _atom_site_fract_y
  _atom_site_fract_z
  _atom_site_occupancy
  Hg  Hg1       1.0  0.31143  0.68857  0.25000  1.0000
  Hg  Hg2       1.0  0.55541  0.44459  0.25000  1.0000
  Hg  Hg3       1.0  0.68857  0.31143  0.75000  1.0000
  Hg  Hg4       1.0  0.44459  0.55541  0.75000  1.0000
  Pd  Pd1       1.0  0.93410  0.06590  0.25000  1.0000
  Pd  Pd2       1.0  0.17282  0.82718  0.25000  1.0000
  Pd  Pd3       1.0  0.06590  0.93410  0.75000  1.0000
  Pd  Pd4       1.0  0.82718  0.17282  0.75000  1.0000
