data_image0
_chemical_formula_structural       Pd4Hg6
_chemical_formula_sum              "Pd4 Hg6"
_cell_length_a       8.20101
_cell_length_b       8.20101
_cell_length_c       9.74061
_cell_angle_alpha    57.6118
_cell_angle_beta     57.6118
_cell_angle_gamma    21.7792

_space_group_name_H-M_alt    "P 1"
_space_group_IT_number       1

loop_
  _space_group_symop_operation_xyz
  'x, y, z'

loop_
  _atom_site_type_symbol
  _atom_site_label
  _atom_site_symmetry_multiplicity
  _atom_site_fract_x
  _atom_site_fract_y
  _atom_site_fract_z
  _atom_site_occupancy
  Pd  Pd1       1.0  0.10503  0.10503  0.77213  1.0000
  Pd  Pd2       1.0  0.42810  0.42810  0.95801  1.0000
  Pd  Pd3       1.0  0.57190  0.57190  0.04199  1.0000
  Pd  Pd4       1.0  0.89497  0.89497  0.22787  1.0000
  Hg  Hg1       1.0  0.95589  0.95589  0.68769  1.0000
  Hg  Hg2       1.0  0.04411  0.04411  0.31231  1.0000
  Hg  Hg3       1.0  0.75281  0.75281  0.13884  1.0000
  Hg  Hg4       1.0  0.24719  0.24719  0.86116  1.0000
  Hg  Hg5       1.0  0.33207  0.33207  0.51153  1.0000
  Hg  Hg6       1.0  0.66793  0.66793  0.48847  1.0000
