data_image0
_chemical_formula_structural       PdN3
_chemical_formula_sum              "Pd1 N3"
_cell_length_a       3.43336
_cell_length_b       3.4298
_cell_length_c       6.19285
_cell_angle_alpha    55.6881
_cell_angle_beta     56.9859
_cell_angle_gamma    59.9733

_space_group_name_H-M_alt    "P 1"
_space_group_IT_number       1

loop_
  _space_group_symop_operation_xyz
  'x, y, z'

loop_
  _atom_site_type_symbol
  _atom_site_label
  _atom_site_symmetry_multiplicity
  _atom_site_fract_x
  _atom_site_fract_y
  _atom_site_fract_z
  _atom_site_occupancy
  Pd  Pd1       1.0  0.87990  0.12018  0.00001  1.0000
  N   N1        1.0  0.86920  0.12955  0.50026  1.0000
  N   N2        1.0  0.69745  0.97659  0.75421  1.0000
  N   N3        1.0  0.05344  0.27368  0.24552  1.0000
