data_image0
_chemical_formula_structural       Pd4N6
_chemical_formula_sum              "Pd4 N6"
_cell_length_a       2.91043
_cell_length_b       7.12395
_cell_length_c       7.70257
_cell_angle_alpha    90
_cell_angle_beta     90
_cell_angle_gamma    90

_space_group_name_H-M_alt    "P 1"
_space_group_IT_number       1

loop_
  _space_group_symop_operation_xyz
  'x, y, z'

loop_
  _atom_site_type_symbol
  _atom_site_label
  _atom_site_symmetry_multiplicity
  _atom_site_fract_x
  _atom_site_fract_y
  _atom_site_fract_z
  _atom_site_occupancy
  Pd  Pd1       1.0  0.50000  0.94920  0.16735  1.0000
  Pd  Pd2       1.0  0.50000  0.05080  0.83265  1.0000
  Pd  Pd3       1.0  0.00000  0.44920  0.33265  1.0000
  Pd  Pd4       1.0  0.00000  0.55080  0.66735  1.0000
  N   N1        1.0  0.50000  0.55429  0.85235  1.0000
  N   N2        1.0  0.50000  0.44571  0.14765  1.0000
  N   N3        1.0  0.00000  0.05429  0.64765  1.0000
  N   N4        1.0  0.00000  0.94571  0.35235  1.0000
  N   N5        1.0  0.00000  0.00000  0.50000  1.0000
  N   N6        1.0  0.50000  0.50000  0.00000  1.0000
