data_image0
_chemical_formula_structural       Pd2N4
_chemical_formula_sum              "Pd2 N4"
_cell_length_a       4.93555
_cell_length_b       4.93555
_cell_length_c       2.91169
_cell_angle_alpha    90
_cell_angle_beta     90
_cell_angle_gamma    106.603

_space_group_name_H-M_alt    "P 1"
_space_group_IT_number       1

loop_
  _space_group_symop_operation_xyz
  'x, y, z'

loop_
  _atom_site_type_symbol
  _atom_site_label
  _atom_site_symmetry_multiplicity
  _atom_site_fract_x
  _atom_site_fract_y
  _atom_site_fract_z
  _atom_site_occupancy
  Pd  Pd1       1.0  0.50000  0.00000  0.00000  1.0000
  Pd  Pd2       1.0  0.00000  0.50000  0.00000  1.0000
  N   N1        1.0  0.67026  0.32974  0.50000  1.0000
  N   N2        1.0  0.32974  0.67026  0.50000  1.0000
  N   N3        1.0  0.89980  0.89980  0.00000  1.0000
  N   N4        1.0  0.10020  0.10020  0.00000  1.0000
