data_image0
_chemical_formula_structural       PdN12
_chemical_formula_sum              "Pd1 N12"
_cell_length_a       6.2108
_cell_length_b       6.2108
_cell_length_c       6.2108
_cell_angle_alpha    109.471
_cell_angle_beta     109.471
_cell_angle_gamma    109.471

_space_group_name_H-M_alt    "P 1"
_space_group_IT_number       1

loop_
  _space_group_symop_operation_xyz
  'x, y, z'

loop_
  _atom_site_type_symbol
  _atom_site_label
  _atom_site_symmetry_multiplicity
  _atom_site_fract_x
  _atom_site_fract_y
  _atom_site_fract_z
  _atom_site_occupancy
  Pd  Pd1       1.0  0.00000  0.00000  0.00000  1.0000
  N   N1        1.0  0.42180  0.24405  0.82224  1.0000
  N   N2        1.0  0.57820  0.75595  0.17776  1.0000
  N   N3        1.0  0.57820  0.40044  0.82224  1.0000
  N   N4        1.0  0.42180  0.59956  0.17776  1.0000
  N   N5        1.0  0.24405  0.82224  0.42180  1.0000
  N   N6        1.0  0.75595  0.17776  0.57820  1.0000
  N   N7        1.0  0.40044  0.82224  0.57820  1.0000
  N   N8        1.0  0.59956  0.17776  0.42180  1.0000
  N   N9        1.0  0.82224  0.42180  0.24405  1.0000
  N   N10       1.0  0.17776  0.57820  0.75595  1.0000
  N   N11       1.0  0.82224  0.57820  0.40044  1.0000
  N   N12       1.0  0.17776  0.42180  0.59956  1.0000
