data_image0
_chemical_formula_structural       Pd4N16
_chemical_formula_sum              "Pd4 N16"
_cell_length_a       9.11364
_cell_length_b       9.11364
_cell_length_c       3.49531
_cell_angle_alpha    90
_cell_angle_beta     90
_cell_angle_gamma    90

_space_group_name_H-M_alt    "P 1"
_space_group_IT_number       1

loop_
  _space_group_symop_operation_xyz
  'x, y, z'

loop_
  _atom_site_type_symbol
  _atom_site_label
  _atom_site_symmetry_multiplicity
  _atom_site_fract_x
  _atom_site_fract_y
  _atom_site_fract_z
  _atom_site_occupancy
  Pd  Pd1       1.0  0.12644  0.62644  0.00000  1.0000
  Pd  Pd2       1.0  0.62644  0.87356  0.00000  1.0000
  Pd  Pd3       1.0  0.37356  0.12644  0.00000  1.0000
  Pd  Pd4       1.0  0.87356  0.37356  0.00000  1.0000
  N   N1        1.0  0.20114  0.48586  0.50000  1.0000
  N   N2        1.0  0.79886  0.51414  0.50000  1.0000
  N   N3        1.0  0.51414  0.20114  0.50000  1.0000
  N   N4        1.0  0.48586  0.79886  0.50000  1.0000
  N   N5        1.0  0.00000  0.00000  0.15904  1.0000
  N   N6        1.0  0.50000  0.50000  0.84096  1.0000
  N   N7        1.0  0.00000  0.00000  0.84096  1.0000
  N   N8        1.0  0.50000  0.50000  0.15904  1.0000
  N   N9        1.0  0.61054  0.11054  0.50000  1.0000
  N   N10       1.0  0.11054  0.38946  0.50000  1.0000
  N   N11       1.0  0.88946  0.61054  0.50000  1.0000
  N   N12       1.0  0.38946  0.88946  0.50000  1.0000
  N   N13       1.0  0.01414  0.29886  0.50000  1.0000
  N   N14       1.0  0.29886  0.98586  0.50000  1.0000
  N   N15       1.0  0.70114  0.01414  0.50000  1.0000
  N   N16       1.0  0.98586  0.70114  0.50000  1.0000
