data_image0
_chemical_formula_structural       Pd4N8
_chemical_formula_sum              "Pd4 N8"
_cell_length_a       5.40958
_cell_length_b       5.40958
_cell_length_c       10.5218
_cell_angle_alpha    69.4492
_cell_angle_beta     69.4492
_cell_angle_gamma    58.555

_space_group_name_H-M_alt    "P 1"
_space_group_IT_number       1

loop_
  _space_group_symop_operation_xyz
  'x, y, z'

loop_
  _atom_site_type_symbol
  _atom_site_label
  _atom_site_symmetry_multiplicity
  _atom_site_fract_x
  _atom_site_fract_y
  _atom_site_fract_z
  _atom_site_occupancy
  Pd  Pd1       1.0  0.67967  0.93008  0.31991  1.0000
  Pd  Pd2       1.0  0.06992  0.32033  0.18009  1.0000
  Pd  Pd3       1.0  0.32033  0.06992  0.68009  1.0000
  Pd  Pd4       1.0  0.93008  0.67967  0.81991  1.0000
  N   N1        1.0  0.00000  0.50000  0.00000  1.0000
  N   N2        1.0  0.50000  0.00000  0.50000  1.0000
  N   N3        1.0  0.53329  0.78916  0.82200  1.0000
  N   N4        1.0  0.21084  0.46671  0.67800  1.0000
  N   N5        1.0  0.46671  0.21084  0.17800  1.0000
  N   N6        1.0  0.78916  0.53329  0.32200  1.0000
  N   N7        1.0  0.05172  0.94828  0.25000  1.0000
  N   N8        1.0  0.94828  0.05172  0.75000  1.0000
