data_image0
_chemical_formula_structural       N4Pd3
_chemical_formula_sum              "N4 Pd3"
_cell_length_a       3.80662
_cell_length_b       3.80662
_cell_length_c       7.64889
_cell_angle_alpha    90
_cell_angle_beta     90
_cell_angle_gamma    120

_space_group_name_H-M_alt    "P 1"
_space_group_IT_number       1

loop_
  _space_group_symop_operation_xyz
  'x, y, z'

loop_
  _atom_site_type_symbol
  _atom_site_label
  _atom_site_symmetry_multiplicity
  _atom_site_fract_x
  _atom_site_fract_y
  _atom_site_fract_z
  _atom_site_occupancy
  N   N1        1.0  0.66667  0.33333  0.07675  1.0000
  N   N2        1.0  0.66667  0.33333  0.57813  1.0000
  N   N3        1.0  0.66667  0.33333  0.42187  1.0000
  N   N4        1.0  0.66667  0.33333  0.92325  1.0000
  Pd  Pd1       1.0  0.33333  0.66667  0.50000  1.0000
  Pd  Pd2       1.0  0.00000  0.00000  0.20100  1.0000
  Pd  Pd3       1.0  0.00000  0.00000  0.79900  1.0000
