data_image0
_chemical_formula_structural       Pd16N32
_chemical_formula_sum              "Pd16 N32"
_cell_length_a       14.8529
_cell_length_b       14.8529
_cell_length_c       14.8529
_cell_angle_alpha    132.837
_cell_angle_beta     132.837
_cell_angle_gamma    68.911

_space_group_name_H-M_alt    "P 1"
_space_group_IT_number       1

loop_
  _space_group_symop_operation_xyz
  'x, y, z'

loop_
  _atom_site_type_symbol
  _atom_site_label
  _atom_site_symmetry_multiplicity
  _atom_site_fract_x
  _atom_site_fract_y
  _atom_site_fract_z
  _atom_site_occupancy
  Pd  Pd1       1.0  0.32828  0.52023  0.48912  1.0000
  Pd  Pd2       1.0  0.03111  0.83915  0.51088  1.0000
  Pd  Pd3       1.0  0.71889  0.41085  0.98912  1.0000
  Pd  Pd4       1.0  0.42172  0.72977  0.01088  1.0000
  Pd  Pd5       1.0  0.32828  0.83915  0.80805  1.0000
  Pd  Pd6       1.0  0.03111  0.52023  0.19195  1.0000
  Pd  Pd7       1.0  0.71889  0.72977  0.30805  1.0000
  Pd  Pd8       1.0  0.42172  0.41085  0.69195  1.0000
  Pd  Pd9       1.0  0.16085  0.96889  0.48912  1.0000
  Pd  Pd10      1.0  0.47977  0.67172  0.51088  1.0000
  Pd  Pd11      1.0  0.27023  0.57828  0.98912  1.0000
  Pd  Pd12      1.0  0.58915  0.28111  0.01088  1.0000
  Pd  Pd13      1.0  0.16085  0.67172  0.19195  1.0000
  Pd  Pd14      1.0  0.47977  0.96889  0.80805  1.0000
  Pd  Pd15      1.0  0.27023  0.28111  0.69195  1.0000
  Pd  Pd16      1.0  0.58915  0.57828  0.30805  1.0000
  N   N1        1.0  0.45015  0.54985  0.50000  1.0000
  N   N2        1.0  0.04985  0.95015  0.50000  1.0000
  N   N3        1.0  0.70015  0.29985  0.00000  1.0000
  N   N4        1.0  0.29985  0.70015  0.00000  1.0000
  N   N5        1.0  0.45015  0.95015  0.90030  1.0000
  N   N6        1.0  0.04985  0.54985  0.09970  1.0000
  N   N7        1.0  0.70015  0.70015  0.40030  1.0000
  N   N8        1.0  0.29985  0.29985  0.59970  1.0000
  N   N9        1.0  0.42544  0.57662  0.84882  1.0000
  N   N10       1.0  0.72780  0.57662  0.15118  1.0000
  N   N11       1.0  0.02220  0.67338  0.34882  1.0000
  N   N12       1.0  0.32456  0.67338  0.65118  1.0000
  N   N13       1.0  0.42338  0.27220  0.84882  1.0000
  N   N14       1.0  0.42338  0.57456  0.15118  1.0000
  N   N15       1.0  0.32662  0.67544  0.34882  1.0000
  N   N16       1.0  0.32662  0.97780  0.65118  1.0000
  N   N17       1.0  0.58285  0.79554  0.21269  1.0000
  N   N18       1.0  0.58285  0.37016  0.78731  1.0000
  N   N19       1.0  0.16715  0.87984  0.71269  1.0000
  N   N20       1.0  0.16715  0.45446  0.28731  1.0000
  N   N21       1.0  0.62984  0.41715  0.21269  1.0000
  N   N22       1.0  0.20446  0.41715  0.78731  1.0000
  N   N23       1.0  0.54554  0.83285  0.71269  1.0000
  N   N24       1.0  0.12016  0.83285  0.28731  1.0000
  N   N25       1.0  0.37500  0.41271  0.53771  1.0000
  N   N26       1.0  0.87500  0.83729  0.46229  1.0000
  N   N27       1.0  0.87500  0.41271  0.03771  1.0000
  N   N28       1.0  0.37500  0.83729  0.96229  1.0000
  N   N29       1.0  0.16271  0.12500  0.53771  1.0000
  N   N30       1.0  0.58729  0.62500  0.46229  1.0000
  N   N31       1.0  0.16271  0.62500  0.03771  1.0000
  N   N32       1.0  0.58729  0.12500  0.96229  1.0000
