data_image0
_chemical_formula_structural       PdN28
_chemical_formula_sum              "Pd1 N28"
_cell_length_a       8.20794
_cell_length_b       8.20794
_cell_length_c       8.20794
_cell_angle_alpha    109.471
_cell_angle_beta     109.471
_cell_angle_gamma    109.471

_space_group_name_H-M_alt    "P 1"
_space_group_IT_number       1

loop_
  _space_group_symop_operation_xyz
  'x, y, z'

loop_
  _atom_site_type_symbol
  _atom_site_label
  _atom_site_symmetry_multiplicity
  _atom_site_fract_x
  _atom_site_fract_y
  _atom_site_fract_z
  _atom_site_occupancy
  Pd  Pd1       1.0  0.00000  0.00000  0.00000  1.0000
  N   N1        1.0  0.77801  0.00000  0.00000  1.0000
  N   N2        1.0  0.00000  0.77801  0.00000  1.0000
  N   N3        1.0  1.00000  0.00000  0.77801  1.0000
  N   N4        1.0  0.22199  0.22199  0.22199  1.0000
  N   N5        1.0  0.29842  0.56635  0.00000  1.0000
  N   N6        1.0  0.73208  0.43365  0.43365  1.0000
  N   N7        1.0  0.29842  0.00000  0.56635  1.0000
  N   N8        1.0  0.56635  0.29842  0.00000  1.0000
  N   N9        1.0  1.00000  0.29842  0.56635  1.0000
  N   N10       1.0  0.43365  0.73208  0.43365  1.0000
  N   N11       1.0  0.43365  0.43365  0.73208  1.0000
  N   N12       1.0  0.00000  0.56635  0.29842  1.0000
  N   N13       1.0  0.56635  0.00000  0.29842  1.0000
  N   N14       1.0  0.70158  0.70158  0.26792  1.0000
  N   N15       1.0  0.26792  0.70158  0.70158  1.0000
  N   N16       1.0  0.70158  0.26792  0.70158  1.0000
  N   N17       1.0  0.42985  0.20915  0.00000  1.0000
  N   N18       1.0  0.22071  0.79085  0.79085  1.0000
  N   N19       1.0  0.42985  0.00000  0.20915  1.0000
  N   N20       1.0  0.20915  0.42985  0.00000  1.0000
  N   N21       1.0  0.00000  0.42985  0.20915  1.0000
  N   N22       1.0  0.79085  0.22071  0.79085  1.0000
  N   N23       1.0  0.79085  0.79085  0.22071  1.0000
  N   N24       1.0  0.00000  0.20915  0.42985  1.0000
  N   N25       1.0  0.20915  0.00000  0.42985  1.0000
  N   N26       1.0  0.57015  0.57015  0.77929  1.0000
  N   N27       1.0  0.77929  0.57015  0.57015  1.0000
  N   N28       1.0  0.57015  0.77929  0.57015  1.0000
