data_image0
_chemical_formula_structural       Pd2S10
_chemical_formula_sum              "Pd2 S10"
_cell_length_a       6.80295
_cell_length_b       6.80295
_cell_length_c       6.64302
_cell_angle_alpha    90
_cell_angle_beta     90
_cell_angle_gamma    120

_space_group_name_H-M_alt    "P 1"
_space_group_IT_number       1

loop_
  _space_group_symop_operation_xyz
  'x, y, z'

loop_
  _atom_site_type_symbol
  _atom_site_label
  _atom_site_symmetry_multiplicity
  _atom_site_fract_x
  _atom_site_fract_y
  _atom_site_fract_z
  _atom_site_occupancy
  Pd  Pd1       1.0  0.66667  0.33333  0.75000  1.0000
  Pd  Pd2       1.0  0.33333  0.66667  0.25000  1.0000
  S   S1        1.0  0.33333  0.66667  0.59952  1.0000
  S   S2        1.0  0.66667  0.33333  0.09952  1.0000
  S   S3        1.0  0.10377  0.20754  0.25000  1.0000
  S   S4        1.0  0.89623  0.10377  0.75000  1.0000
  S   S5        1.0  0.20754  0.10377  0.75000  1.0000
  S   S6        1.0  0.79246  0.89623  0.25000  1.0000
  S   S7        1.0  0.10377  0.89623  0.25000  1.0000
  S   S8        1.0  0.89623  0.79246  0.75000  1.0000
  S   S9        1.0  0.33333  0.66667  0.90048  1.0000
  S   S10       1.0  0.66667  0.33333  0.40048  1.0000
