data_image0
_chemical_formula_structural       Pd2N8
_chemical_formula_sum              "Pd2 N8"
_cell_length_a       5.85306
_cell_length_b       5.85306
_cell_length_c       5.36444
_cell_angle_alpha    90
_cell_angle_beta     90
_cell_angle_gamma    136.302

_space_group_name_H-M_alt    "P 1"
_space_group_IT_number       1

loop_
  _space_group_symop_operation_xyz
  'x, y, z'

loop_
  _atom_site_type_symbol
  _atom_site_label
  _atom_site_symmetry_multiplicity
  _atom_site_fract_x
  _atom_site_fract_y
  _atom_site_fract_z
  _atom_site_occupancy
  Pd  Pd1       1.0  0.17208  0.82792  0.75000  1.0000
  Pd  Pd2       1.0  0.82792  0.17208  0.25000  1.0000
  N   N1        1.0  0.10122  0.70539  0.17520  1.0000
  N   N2        1.0  0.40427  0.33555  0.75784  1.0000
  N   N3        1.0  0.89878  0.29461  0.67520  1.0000
  N   N4        1.0  0.33555  0.40427  0.24216  1.0000
  N   N5        1.0  0.70539  0.10122  0.82480  1.0000
  N   N6        1.0  0.29461  0.89878  0.32480  1.0000
  N   N7        1.0  0.59573  0.66445  0.25784  1.0000
  N   N8        1.0  0.66445  0.59573  0.74216  1.0000
