data_image0
_chemical_formula_structural       Pd4N6
_chemical_formula_sum              "Pd4 N6"
_cell_length_a       4.91627
_cell_length_b       4.91627
_cell_length_c       6.19503
_cell_angle_alpha    90
_cell_angle_beta     90
_cell_angle_gamma    119.638

_space_group_name_H-M_alt    "P 1"
_space_group_IT_number       1

loop_
  _space_group_symop_operation_xyz
  'x, y, z'

loop_
  _atom_site_type_symbol
  _atom_site_label
  _atom_site_symmetry_multiplicity
  _atom_site_fract_x
  _atom_site_fract_y
  _atom_site_fract_z
  _atom_site_occupancy
  Pd  Pd1       1.0  0.53810  0.46190  0.16748  1.0000
  Pd  Pd2       1.0  0.46190  0.53810  0.66748  1.0000
  Pd  Pd3       1.0  0.21726  0.78274  0.29995  1.0000
  Pd  Pd4       1.0  0.78274  0.21726  0.79995  1.0000
  N   N1        1.0  0.15221  0.32426  0.41850  1.0000
  N   N2        1.0  0.84779  0.67574  0.91850  1.0000
  N   N3        1.0  0.67574  0.84779  0.41850  1.0000
  N   N4        1.0  0.32426  0.15221  0.91850  1.0000
  N   N5        1.0  0.11307  0.88693  0.99456  1.0000
  N   N6        1.0  0.88693  0.11307  0.49456  1.0000
