data_image0
_chemical_formula_structural       Pd4N20
_chemical_formula_sum              "Pd4 N20"
_cell_length_a       6.96639
_cell_length_b       4.20539
_cell_length_c       7.97162
_cell_angle_alpha    76.4626
_cell_angle_beta     90
_cell_angle_gamma    90

_space_group_name_H-M_alt    "P 1"
_space_group_IT_number       1

loop_
  _space_group_symop_operation_xyz
  'x, y, z'

loop_
  _atom_site_type_symbol
  _atom_site_label
  _atom_site_symmetry_multiplicity
  _atom_site_fract_x
  _atom_site_fract_y
  _atom_site_fract_z
  _atom_site_occupancy
  Pd  Pd1       1.0  0.25000  0.09800  0.02203  1.0000
  Pd  Pd2       1.0  0.75000  0.90200  0.97797  1.0000
  Pd  Pd3       1.0  0.25000  0.07745  0.50779  1.0000
  Pd  Pd4       1.0  0.75000  0.92255  0.49221  1.0000
  N   N1        1.0  0.58929  0.38835  0.69126  1.0000
  N   N2        1.0  0.08929  0.61165  0.30874  1.0000
  N   N3        1.0  0.41071  0.61165  0.30874  1.0000
  N   N4        1.0  0.91071  0.38835  0.69126  1.0000
  N   N5        1.0  0.51151  0.12725  0.17145  1.0000
  N   N6        1.0  0.01151  0.87275  0.82855  1.0000
  N   N7        1.0  0.48849  0.87275  0.82855  1.0000
  N   N8        1.0  0.98849  0.12725  0.17145  1.0000
  N   N9        1.0  0.59058  0.39546  0.19392  1.0000
  N   N10       1.0  0.09058  0.60454  0.80608  1.0000
  N   N11       1.0  0.40942  0.60454  0.80608  1.0000
  N   N12       1.0  0.90942  0.39546  0.19392  1.0000
  N   N13       1.0  0.25000  0.64138  0.69141  1.0000
  N   N14       1.0  0.75000  0.35862  0.30859  1.0000
  N   N15       1.0  0.51020  0.12030  0.66603  1.0000
  N   N16       1.0  0.01020  0.87970  0.33397  1.0000
  N   N17       1.0  0.48980  0.87970  0.33397  1.0000
  N   N18       1.0  0.98980  0.12030  0.66603  1.0000
  N   N19       1.0  0.25000  0.65806  0.19627  1.0000
  N   N20       1.0  0.75000  0.34194  0.80373  1.0000
