data_image0
_chemical_formula_structural       Pd4N24
_chemical_formula_sum              "Pd4 N24"
_cell_length_a       5.66229
_cell_length_b       5.33605
_cell_length_c       12.1959
_cell_angle_alpha    90
_cell_angle_beta     90
_cell_angle_gamma    90

_space_group_name_H-M_alt    "P 1"
_space_group_IT_number       1

loop_
  _space_group_symop_operation_xyz
  'x, y, z'

loop_
  _atom_site_type_symbol
  _atom_site_label
  _atom_site_symmetry_multiplicity
  _atom_site_fract_x
  _atom_site_fract_y
  _atom_site_fract_z
  _atom_site_occupancy
  Pd  Pd1       1.0  0.24750  0.93490  0.50707  1.0000
  Pd  Pd2       1.0  0.75250  0.43490  0.49293  1.0000
  Pd  Pd3       1.0  0.24750  0.43490  0.99293  1.0000
  Pd  Pd4       1.0  0.75250  0.93490  0.00707  1.0000
  N   N1        1.0  0.94326  0.12643  0.55720  1.0000
  N   N2        1.0  0.05674  0.62643  0.44280  1.0000
  N   N3        1.0  0.94326  0.62643  0.94280  1.0000
  N   N4        1.0  0.05674  0.12643  0.05720  1.0000
  N   N5        1.0  0.88225  0.10296  0.65373  1.0000
  N   N6        1.0  0.11775  0.60296  0.34627  1.0000
  N   N7        1.0  0.88225  0.60296  0.84627  1.0000
  N   N8        1.0  0.11775  0.10296  0.15373  1.0000
  N   N9        1.0  0.81497  0.09033  0.74283  1.0000
  N   N10       1.0  0.18503  0.59033  0.25717  1.0000
  N   N11       1.0  0.81497  0.59033  0.75717  1.0000
  N   N12       1.0  0.18503  0.09033  0.24283  1.0000
  N   N13       1.0  0.54927  0.74646  0.44819  1.0000
  N   N14       1.0  0.45073  0.24646  0.55181  1.0000
  N   N15       1.0  0.54927  0.24646  0.05181  1.0000
  N   N16       1.0  0.45073  0.74646  0.94819  1.0000
  N   N17       1.0  0.63267  0.87870  0.37484  1.0000
  N   N18       1.0  0.36733  0.37870  0.62516  1.0000
  N   N19       1.0  0.63267  0.37870  0.12516  1.0000
  N   N20       1.0  0.36733  0.87870  0.87484  1.0000
  N   N21       1.0  0.70729  0.01001  0.30844  1.0000
  N   N22       1.0  0.29271  0.51001  0.69156  1.0000
  N   N23       1.0  0.70729  0.51001  0.19156  1.0000
  N   N24       1.0  0.29271  0.01001  0.80844  1.0000
