data_image0
_chemical_formula_structural       Pd2N24
_chemical_formula_sum              "Pd2 N24"
_cell_length_a       6.4883
_cell_length_b       6.4883
_cell_length_c       12.8808
_cell_angle_alpha    90
_cell_angle_beta     90
_cell_angle_gamma    119.909

_space_group_name_H-M_alt    "P 1"
_space_group_IT_number       1

loop_
  _space_group_symop_operation_xyz
  'x, y, z'

loop_
  _atom_site_type_symbol
  _atom_site_label
  _atom_site_symmetry_multiplicity
  _atom_site_fract_x
  _atom_site_fract_y
  _atom_site_fract_z
  _atom_site_occupancy
  Pd  Pd1       1.0  0.83396  0.83396  0.75000  1.0000
  Pd  Pd2       1.0  0.16604  0.16604  0.25000  1.0000
  N   N1        1.0  0.75374  0.16662  0.12406  1.0000
  N   N2        1.0  0.75374  0.16662  0.37594  1.0000
  N   N3        1.0  0.58147  0.16626  0.11814  1.0000
  N   N4        1.0  0.58147  0.16626  0.38186  1.0000
  N   N5        1.0  0.83338  0.24626  0.62406  1.0000
  N   N6        1.0  0.83338  0.24626  0.87594  1.0000
  N   N7        1.0  0.83374  0.41853  0.61814  1.0000
  N   N8        1.0  0.83374  0.41853  0.88186  1.0000
  N   N9        1.0  0.16662  0.75374  0.12406  1.0000
  N   N10       1.0  0.16662  0.75374  0.37594  1.0000
  N   N11       1.0  0.75195  0.75195  0.11836  1.0000
  N   N12       1.0  0.75195  0.75195  0.38164  1.0000
  N   N13       1.0  0.24626  0.83338  0.62406  1.0000
  N   N14       1.0  0.24626  0.83338  0.87594  1.0000
  N   N15       1.0  0.24805  0.24805  0.61836  1.0000
  N   N16       1.0  0.24805  0.24805  0.88164  1.0000
  N   N17       1.0  0.57995  0.57995  0.12274  1.0000
  N   N18       1.0  0.57995  0.57995  0.37726  1.0000
  N   N19       1.0  0.16626  0.58147  0.11814  1.0000
  N   N20       1.0  0.16626  0.58147  0.38186  1.0000
  N   N21       1.0  0.42005  0.42005  0.62274  1.0000
  N   N22       1.0  0.42005  0.42005  0.87726  1.0000
  N   N23       1.0  0.41853  0.83374  0.61814  1.0000
  N   N24       1.0  0.41853  0.83374  0.88186  1.0000
