data_image0
_chemical_formula_structural       Pd4N10
_chemical_formula_sum              "Pd4 N10"
_cell_length_a       6.50509
_cell_length_b       6.50509
_cell_length_c       5.66876
_cell_angle_alpha    90
_cell_angle_beta     90
_cell_angle_gamma    114.341

_space_group_name_H-M_alt    "P 1"
_space_group_IT_number       1

loop_
  _space_group_symop_operation_xyz
  'x, y, z'

loop_
  _atom_site_type_symbol
  _atom_site_label
  _atom_site_symmetry_multiplicity
  _atom_site_fract_x
  _atom_site_fract_y
  _atom_site_fract_z
  _atom_site_occupancy
  Pd  Pd1       1.0  0.79692  0.79692  0.00000  1.0000
  Pd  Pd2       1.0  0.79692  0.79692  0.50000  1.0000
  Pd  Pd3       1.0  0.20308  0.20308  0.50000  1.0000
  Pd  Pd4       1.0  0.20308  0.20308  0.00000  1.0000
  N   N1        1.0  0.86362  0.29473  0.75000  1.0000
  N   N2        1.0  0.44552  0.38812  0.75000  1.0000
  N   N3        1.0  0.94181  0.05819  0.25000  1.0000
  N   N4        1.0  0.05819  0.94181  0.75000  1.0000
  N   N5        1.0  0.38812  0.44552  0.25000  1.0000
  N   N6        1.0  0.61188  0.55448  0.75000  1.0000
  N   N7        1.0  0.29473  0.86362  0.25000  1.0000
  N   N8        1.0  0.55448  0.61188  0.25000  1.0000
  N   N9        1.0  0.70527  0.13638  0.75000  1.0000
  N   N10       1.0  0.13638  0.70527  0.25000  1.0000
