data_image0
_chemical_formula_structural       Pd3N20
_chemical_formula_sum              "Pd3 N20"
_cell_length_a       12.7615
_cell_length_b       12.7615
_cell_length_c       4.68803
_cell_angle_alpha    90
_cell_angle_beta     90
_cell_angle_gamma    147.142

_space_group_name_H-M_alt    "P 1"
_space_group_IT_number       1

loop_
  _space_group_symop_operation_xyz
  'x, y, z'

loop_
  _atom_site_type_symbol
  _atom_site_label
  _atom_site_symmetry_multiplicity
  _atom_site_fract_x
  _atom_site_fract_y
  _atom_site_fract_z
  _atom_site_occupancy
  Pd  Pd1       1.0  0.36241  0.63759  0.00000  1.0000
  Pd  Pd2       1.0  0.63759  0.36241  0.00000  1.0000
  Pd  Pd3       1.0  0.00000  0.00000  0.00000  1.0000
  N   N1        1.0  0.71132  0.28868  0.50000  1.0000
  N   N2        1.0  0.28868  0.71132  0.50000  1.0000
  N   N3        1.0  0.54324  0.12620  0.50000  1.0000
  N   N4        1.0  0.18030  0.81970  0.11863  1.0000
  N   N5        1.0  0.81970  0.18030  0.11863  1.0000
  N   N6        1.0  0.81970  0.18030  0.88137  1.0000
  N   N7        1.0  0.18030  0.81970  0.88137  1.0000
  N   N8        1.0  0.50000  0.50000  0.11894  1.0000
  N   N9        1.0  0.50000  0.50000  0.88106  1.0000
  N   N10       1.0  0.78538  0.66285  0.50000  1.0000
  N   N11       1.0  0.21462  0.33715  0.50000  1.0000
  N   N12       1.0  0.66285  0.78538  0.50000  1.0000
  N   N13       1.0  0.33715  0.21462  0.50000  1.0000
  N   N14       1.0  0.90795  0.70845  0.50000  1.0000
  N   N15       1.0  0.09205  0.29155  0.50000  1.0000
  N   N16       1.0  0.70845  0.90795  0.50000  1.0000
  N   N17       1.0  0.29155  0.09205  0.50000  1.0000
  N   N18       1.0  0.87380  0.45676  0.50000  1.0000
  N   N19       1.0  0.12620  0.54324  0.50000  1.0000
  N   N20       1.0  0.45676  0.87380  0.50000  1.0000
