data_image0
_chemical_formula_structural       N12Pd4
_chemical_formula_sum              "N12 Pd4"
_cell_length_a       5.80981
_cell_length_b       5.51296
_cell_length_c       6.75353
_cell_angle_alpha    90
_cell_angle_beta     90
_cell_angle_gamma    90

_space_group_name_H-M_alt    "P 1"
_space_group_IT_number       1

loop_
  _space_group_symop_operation_xyz
  'x, y, z'

loop_
  _atom_site_type_symbol
  _atom_site_label
  _atom_site_symmetry_multiplicity
  _atom_site_fract_x
  _atom_site_fract_y
  _atom_site_fract_z
  _atom_site_occupancy
  N   N1        1.0  0.34662  0.14828  0.33504  1.0000
  N   N2        1.0  0.15338  0.64828  0.16496  1.0000
  N   N3        1.0  0.84662  0.35172  0.83504  1.0000
  N   N4        1.0  0.35644  0.44479  0.75000  1.0000
  N   N5        1.0  0.15338  0.64828  0.33504  1.0000
  N   N6        1.0  0.34662  0.14828  0.16496  1.0000
  N   N7        1.0  0.14356  0.94479  0.75000  1.0000
  N   N8        1.0  0.65338  0.85172  0.83504  1.0000
  N   N9        1.0  0.84662  0.35172  0.66496  1.0000
  N   N10       1.0  0.64356  0.55521  0.25000  1.0000
  N   N11       1.0  0.65338  0.85172  0.66496  1.0000
  N   N12       1.0  0.85644  0.05521  0.25000  1.0000
  Pd  Pd1       1.0  0.00000  0.00000  0.50000  1.0000
  Pd  Pd2       1.0  0.50000  0.50000  0.50000  1.0000
  Pd  Pd3       1.0  0.50000  0.50000  0.00000  1.0000
  Pd  Pd4       1.0  0.00000  0.00000  0.00000  1.0000
