data_image0
_chemical_formula_structural       N4Pd4
_chemical_formula_sum              "N4 Pd4"
_cell_length_a       11.6613
_cell_length_b       11.6613
_cell_length_c       11.6613
_cell_angle_alpha    15.013
_cell_angle_beta     15.013
_cell_angle_gamma    15.013

_space_group_name_H-M_alt    "P 1"
_space_group_IT_number       1

loop_
  _space_group_symop_operation_xyz
  'x, y, z'

loop_
  _atom_site_type_symbol
  _atom_site_label
  _atom_site_symmetry_multiplicity
  _atom_site_fract_x
  _atom_site_fract_y
  _atom_site_fract_z
  _atom_site_occupancy
  N   N1        1.0  0.00000  0.00000  0.00000  1.0000
  N   N2        1.0  0.50000  0.50000  0.50000  1.0000
  N   N3        1.0  0.90397  0.90397  0.90397  1.0000
  N   N4        1.0  0.09603  0.09603  0.09603  1.0000
  Pd  Pd1       1.0  0.79400  0.79400  0.79400  1.0000
  Pd  Pd2       1.0  0.20600  0.20600  0.20600  1.0000
  Pd  Pd3       1.0  0.62958  0.62958  0.62958  1.0000
  Pd  Pd4       1.0  0.37042  0.37042  0.37042  1.0000
