data_image0
_chemical_formula_structural       N4Pd4
_chemical_formula_sum              "N4 Pd4"
_cell_length_a       2.99417
_cell_length_b       2.99417
_cell_length_c       11.1293
_cell_angle_alpha    90
_cell_angle_beta     90
_cell_angle_gamma    91.0365

_space_group_name_H-M_alt    "P 1"
_space_group_IT_number       1

loop_
  _space_group_symop_operation_xyz
  'x, y, z'

loop_
  _atom_site_type_symbol
  _atom_site_label
  _atom_site_symmetry_multiplicity
  _atom_site_fract_x
  _atom_site_fract_y
  _atom_site_fract_z
  _atom_site_occupancy
  N   N1        1.0  0.82613  0.17387  0.15957  1.0000
  N   N2        1.0  0.17387  0.82613  0.84043  1.0000
  N   N3        1.0  0.67387  0.32613  0.65957  1.0000
  N   N4        1.0  0.32613  0.67387  0.34043  1.0000
  Pd  Pd1       1.0  0.32866  0.67134  0.14669  1.0000
  Pd  Pd2       1.0  0.67134  0.32866  0.85331  1.0000
  Pd  Pd3       1.0  0.17134  0.82866  0.64669  1.0000
  Pd  Pd4       1.0  0.82866  0.17134  0.35331  1.0000
