data_image0
_chemical_formula_structural       Pd3N4
_chemical_formula_sum              "Pd3 N4"
_cell_length_a       8.90858
_cell_length_b       8.90858
_cell_length_c       8.90858
_cell_angle_alpha    159.924
_cell_angle_beta     159.76
_cell_angle_gamma    28.6589

_space_group_name_H-M_alt    "P 1"
_space_group_IT_number       1

loop_
  _space_group_symop_operation_xyz
  'x, y, z'

loop_
  _atom_site_type_symbol
  _atom_site_label
  _atom_site_symmetry_multiplicity
  _atom_site_fract_x
  _atom_site_fract_y
  _atom_site_fract_z
  _atom_site_occupancy
  Pd  Pd1       1.0  0.18063  0.68063  0.50000  1.0000
  Pd  Pd2       1.0  0.81937  0.31937  0.50000  1.0000
  Pd  Pd3       1.0  0.00000  0.00000  0.00000  1.0000
  N   N1        1.0  0.46402  0.46402  0.00000  1.0000
  N   N2        1.0  0.53598  0.53598  0.00000  1.0000
  N   N3        1.0  0.30260  0.80260  0.50000  1.0000
  N   N4        1.0  0.69740  0.19740  0.50000  1.0000
