data_image0
_chemical_formula_structural       Pd3N34
_chemical_formula_sum              "Pd3 N34"
_cell_length_a       9.20526
_cell_length_b       9.20526
_cell_length_c       9.20526
_cell_angle_alpha    66.2412
_cell_angle_beta     66.2412
_cell_angle_gamma    66.2412

_space_group_name_H-M_alt    "P 1"
_space_group_IT_number       1

loop_
  _space_group_symop_operation_xyz
  'x, y, z'

loop_
  _atom_site_type_symbol
  _atom_site_label
  _atom_site_symmetry_multiplicity
  _atom_site_fract_x
  _atom_site_fract_y
  _atom_site_fract_z
  _atom_site_occupancy
  Pd  Pd1       1.0  0.41737  0.41737  0.41737  1.0000
  Pd  Pd2       1.0  0.58263  0.58263  0.58263  1.0000
  Pd  Pd3       1.0  0.00000  0.00000  0.00000  1.0000
  N   N1        1.0  0.14524  0.14524  0.14524  1.0000
  N   N2        1.0  0.65996  0.32496  0.32496  1.0000
  N   N3        1.0  0.32496  0.32496  0.65996  1.0000
  N   N4        1.0  0.32496  0.65996  0.32496  1.0000
  N   N5        1.0  0.85476  0.85476  0.85476  1.0000
  N   N6        1.0  0.34004  0.67504  0.67504  1.0000
  N   N7        1.0  0.67504  0.67504  0.34004  1.0000
  N   N8        1.0  0.67504  0.34004  0.67504  1.0000
  N   N9        1.0  0.09265  0.09265  0.09265  1.0000
  N   N10       1.0  0.90735  0.90735  0.90735  1.0000
  N   N11       1.0  0.38185  0.06577  0.38185  1.0000
  N   N12       1.0  0.73394  0.49645  0.93994  1.0000
  N   N13       1.0  0.93994  0.49645  0.73394  1.0000
  N   N14       1.0  0.30446  0.79488  0.30446  1.0000
  N   N15       1.0  0.49645  0.93994  0.73394  1.0000
  N   N16       1.0  0.06577  0.38185  0.38185  1.0000
  N   N17       1.0  0.79488  0.30446  0.30446  1.0000
  N   N18       1.0  0.49645  0.73394  0.93994  1.0000
  N   N19       1.0  0.73394  0.93994  0.49645  1.0000
  N   N20       1.0  0.30446  0.30446  0.79488  1.0000
  N   N21       1.0  0.38185  0.38185  0.06577  1.0000
  N   N22       1.0  0.93994  0.73394  0.49645  1.0000
  N   N23       1.0  0.61815  0.93423  0.61815  1.0000
  N   N24       1.0  0.26606  0.50355  0.06006  1.0000
  N   N25       1.0  0.06006  0.50355  0.26606  1.0000
  N   N26       1.0  0.69554  0.20512  0.69554  1.0000
  N   N27       1.0  0.50355  0.06006  0.26606  1.0000
  N   N28       1.0  0.93423  0.61815  0.61815  1.0000
  N   N29       1.0  0.20512  0.69554  0.69554  1.0000
  N   N30       1.0  0.50355  0.26606  0.06006  1.0000
  N   N31       1.0  0.26606  0.06006  0.50355  1.0000
  N   N32       1.0  0.69554  0.69554  0.20512  1.0000
  N   N33       1.0  0.61815  0.61815  0.93423  1.0000
  N   N34       1.0  0.06006  0.26606  0.50355  1.0000
