data_image0
_chemical_formula_structural       Pd16N32
_chemical_formula_sum              "Pd16 N32"
_cell_length_a       6.1843
_cell_length_b       15.9129
_cell_length_c       15.9064
_cell_angle_alpha    89.5976
_cell_angle_beta     83.9015
_cell_angle_gamma    84.0143

_space_group_name_H-M_alt    "P 1"
_space_group_IT_number       1

loop_
  _space_group_symop_operation_xyz
  'x, y, z'

loop_
  _atom_site_type_symbol
  _atom_site_label
  _atom_site_symmetry_multiplicity
  _atom_site_fract_x
  _atom_site_fract_y
  _atom_site_fract_z
  _atom_site_occupancy
  Pd  Pd1       1.0  0.14140  0.39201  0.74382  1.0000
  Pd  Pd2       1.0  0.85860  0.60799  0.25618  1.0000
  Pd  Pd3       1.0  0.42416  0.44449  0.55457  1.0000
  Pd  Pd4       1.0  0.57584  0.55551  0.44543  1.0000
  Pd  Pd5       1.0  0.21330  0.10238  0.75085  1.0000
  Pd  Pd6       1.0  0.78670  0.89762  0.24915  1.0000
  Pd  Pd7       1.0  0.14243  0.24387  0.89201  1.0000
  Pd  Pd8       1.0  0.85757  0.75613  0.10799  1.0000
  Pd  Pd9       1.0  0.03875  0.05577  0.55592  1.0000
  Pd  Pd10      1.0  0.96125  0.94423  0.44408  1.0000
  Pd  Pd11      1.0  0.96282  0.44164  0.94180  1.0000
  Pd  Pd12      1.0  0.03718  0.55836  0.05820  1.0000
  Pd  Pd13      1.0  0.42465  0.05460  0.94434  1.0000
  Pd  Pd14      1.0  0.57535  0.94540  0.05566  1.0000
  Pd  Pd15      1.0  0.21308  0.25070  0.60243  1.0000
  Pd  Pd16      1.0  0.78692  0.74930  0.39757  1.0000
  N   N1        1.0  0.76574  0.01933  0.51941  1.0000
  N   N2        1.0  0.23426  0.98067  0.48059  1.0000
  N   N3        1.0  0.93434  0.45409  0.82537  1.0000
  N   N4        1.0  0.06566  0.54591  0.17463  1.0000
  N   N5        1.0  0.31730  0.16905  0.95981  1.0000
  N   N6        1.0  0.68270  0.83095  0.04019  1.0000
  N   N7        1.0  0.71848  0.47666  0.52217  1.0000
  N   N8        1.0  0.28152  0.52334  0.47783  1.0000
  N   N9        1.0  0.06373  0.17210  0.54527  1.0000
  N   N10       1.0  0.93627  0.82790  0.45473  1.0000
  N   N11       1.0  0.28133  0.97801  0.02342  1.0000
  N   N12       1.0  0.71867  0.02199  0.97658  1.0000
  N   N13       1.0  0.28615  0.32545  0.82515  1.0000
  N   N14       1.0  0.71385  0.67455  0.17485  1.0000
  N   N15       1.0  0.31566  0.46028  0.66895  1.0000
  N   N16       1.0  0.68434  0.53972  0.33105  1.0000
  N   N17       1.0  0.37914  0.33068  0.54052  1.0000
  N   N18       1.0  0.62086  0.66932  0.45948  1.0000
  N   N19       1.0  0.77635  0.52143  0.02151  1.0000
  N   N20       1.0  0.22365  0.47857  0.97849  1.0000
  N   N21       1.0  0.06352  0.04520  0.67228  1.0000
  N   N22       1.0  0.93648  0.95480  0.32772  1.0000
  N   N23       1.0  0.00680  0.16302  0.83440  1.0000
  N   N24       1.0  0.99320  0.83698  0.16560  1.0000
  N   N25       1.0  0.36236  0.16844  0.66834  1.0000
  N   N26       1.0  0.63764  0.83156  0.33166  1.0000
  N   N27       1.0  0.93444  0.32517  0.95406  1.0000
  N   N28       1.0  0.06556  0.67483  0.04594  1.0000
  N   N29       1.0  0.00647  0.33402  0.66317  1.0000
  N   N30       1.0  0.99353  0.66598  0.33683  1.0000
  N   N31       1.0  0.37907  0.04035  0.83059  1.0000
  N   N32       1.0  0.62093  0.95965  0.16941  1.0000
