data_image0
_chemical_formula_structural       Pd2N8
_chemical_formula_sum              "Pd2 N8"
_cell_length_a       6.09422
_cell_length_b       6.35508
_cell_length_c       4.35032
_cell_angle_alpha    90
_cell_angle_beta     90
_cell_angle_gamma    90

_space_group_name_H-M_alt    "P 1"
_space_group_IT_number       1

loop_
  _space_group_symop_operation_xyz
  'x, y, z'

loop_
  _atom_site_type_symbol
  _atom_site_label
  _atom_site_symmetry_multiplicity
  _atom_site_fract_x
  _atom_site_fract_y
  _atom_site_fract_z
  _atom_site_occupancy
  Pd  Pd1       1.0  0.75000  0.37072  0.50000  1.0000
  Pd  Pd2       1.0  0.25000  0.62928  0.50000  1.0000
  N   N1        1.0  0.75000  0.12721  0.13079  1.0000
  N   N2        1.0  0.25000  0.87279  0.86921  1.0000
  N   N3        1.0  0.75000  0.60688  0.13107  1.0000
  N   N4        1.0  0.25000  0.39312  0.86893  1.0000
  N   N5        1.0  0.75000  0.60688  0.86893  1.0000
  N   N6        1.0  0.25000  0.39312  0.13107  1.0000
  N   N7        1.0  0.25000  0.87279  0.13079  1.0000
  N   N8        1.0  0.75000  0.12721  0.86921  1.0000
