data_image0
_chemical_formula_structural       Pd2N10
_chemical_formula_sum              "Pd2 N10"
_cell_length_a       6.65629
_cell_length_b       3.93499
_cell_length_c       4.09921
_cell_angle_alpha    82.6308
_cell_angle_beta     90
_cell_angle_gamma    90

_space_group_name_H-M_alt    "P 1"
_space_group_IT_number       1

loop_
  _space_group_symop_operation_xyz
  'x, y, z'

loop_
  _atom_site_type_symbol
  _atom_site_label
  _atom_site_symmetry_multiplicity
  _atom_site_fract_x
  _atom_site_fract_y
  _atom_site_fract_z
  _atom_site_occupancy
  Pd  Pd1       1.0  0.25000  0.99736  0.45581  1.0000
  Pd  Pd2       1.0  0.75000  0.00264  0.54419  1.0000
  N   N1        1.0  0.25000  0.62345  0.89441  1.0000
  N   N2        1.0  0.75000  0.37655  0.10559  1.0000
  N   N3        1.0  0.41903  0.40870  0.91450  1.0000
  N   N4        1.0  0.91903  0.59130  0.08550  1.0000
  N   N5        1.0  0.58097  0.59130  0.08550  1.0000
  N   N6        1.0  0.08097  0.40870  0.91450  1.0000
  N   N7        1.0  0.48735  0.33889  0.60728  1.0000
  N   N8        1.0  0.98735  0.66111  0.39272  1.0000
  N   N9        1.0  0.51265  0.66111  0.39272  1.0000
  N   N10       1.0  0.01265  0.33889  0.60728  1.0000
