data_image0
_chemical_formula_structural       Pd2N8
_chemical_formula_sum              "Pd2 N8"
_cell_length_a       4.50063
_cell_length_b       6.17892
_cell_length_c       6.14024
_cell_angle_alpha    114.812
_cell_angle_beta     114.235
_cell_angle_gamma    88.6404

_space_group_name_H-M_alt    "P 1"
_space_group_IT_number       1

loop_
  _space_group_symop_operation_xyz
  'x, y, z'

loop_
  _atom_site_type_symbol
  _atom_site_label
  _atom_site_symmetry_multiplicity
  _atom_site_fract_x
  _atom_site_fract_y
  _atom_site_fract_z
  _atom_site_occupancy
  Pd  Pd1       1.0  0.99735  0.73585  0.22159  1.0000
  Pd  Pd2       1.0  0.00265  0.26415  0.77841  1.0000
  N   N1        1.0  0.50561  0.23392  0.01504  1.0000
  N   N2        1.0  0.49439  0.76608  0.98496  1.0000
  N   N3        1.0  0.50355  0.74486  0.51161  1.0000
  N   N4        1.0  0.49645  0.25514  0.48839  1.0000
  N   N5        1.0  0.23430  0.68070  0.92735  1.0000
  N   N6        1.0  0.76570  0.31930  0.07265  1.0000
  N   N7        1.0  0.76615  0.80847  0.55624  1.0000
  N   N8        1.0  0.23385  0.19153  0.44376  1.0000
