data_image0
_chemical_formula_structural       Pd2N4
_chemical_formula_sum              "Pd2 N4"
_cell_length_a       3.25165
_cell_length_b       4.17554
_cell_length_c       5.80523
_cell_angle_alpha    65.1504
_cell_angle_beta     90
_cell_angle_gamma    90

_space_group_name_H-M_alt    "P 1"
_space_group_IT_number       1

loop_
  _space_group_symop_operation_xyz
  'x, y, z'

loop_
  _atom_site_type_symbol
  _atom_site_label
  _atom_site_symmetry_multiplicity
  _atom_site_fract_x
  _atom_site_fract_y
  _atom_site_fract_z
  _atom_site_occupancy
  Pd  Pd1       1.0  0.79339  0.50000  0.75000  1.0000
  Pd  Pd2       1.0  0.20661  0.50000  0.25000  1.0000
  N   N1        1.0  0.28294  0.15717  0.70021  1.0000
  N   N2        1.0  0.28294  0.84283  0.79979  1.0000
  N   N3        1.0  0.71706  0.84283  0.29979  1.0000
  N   N4        1.0  0.71706  0.15717  0.20021  1.0000
