data_image0
_chemical_formula_structural       N8Pd8
_chemical_formula_sum              "N8 Pd8"
_cell_length_a       8.25457
_cell_length_b       8.25457
_cell_length_c       8.25457
_cell_angle_alpha    139.707
_cell_angle_beta     139.707
_cell_angle_gamma    58.299

_space_group_name_H-M_alt    "P 1"
_space_group_IT_number       1

loop_
  _space_group_symop_operation_xyz
  'x, y, z'

loop_
  _atom_site_type_symbol
  _atom_site_label
  _atom_site_symmetry_multiplicity
  _atom_site_fract_x
  _atom_site_fract_y
  _atom_site_fract_z
  _atom_site_occupancy
  N   N1        1.0  0.12500  0.02005  0.39505  1.0000
  N   N2        1.0  0.77005  0.87500  0.39505  1.0000
  N   N3        1.0  0.47995  0.37500  0.60495  1.0000
  N   N4        1.0  0.62500  0.72995  0.60495  1.0000
  N   N5        1.0  0.62500  0.22995  0.10495  1.0000
  N   N6        1.0  0.97995  0.37500  0.10495  1.0000
  N   N7        1.0  0.27005  0.87500  0.89505  1.0000
  N   N8        1.0  0.12500  0.52005  0.89505  1.0000
  Pd  Pd1       1.0  0.81401  0.31401  0.12801  1.0000
  Pd  Pd2       1.0  0.06401  0.43599  0.00000  1.0000
  Pd  Pd3       1.0  0.43599  0.06401  0.00000  1.0000
  Pd  Pd4       1.0  0.18599  0.68599  0.87199  1.0000
  Pd  Pd5       1.0  0.93599  0.93599  0.37199  1.0000
  Pd  Pd6       1.0  0.68599  0.81401  0.50000  1.0000
  Pd  Pd7       1.0  0.31401  0.18599  0.50000  1.0000
  Pd  Pd8       1.0  0.56401  0.56401  0.62801  1.0000
