data_image0
_chemical_formula_structural       Pd2N30
_chemical_formula_sum              "Pd2 N30"
_cell_length_a       8.95473
_cell_length_b       8.95473
_cell_length_c       8.95473
_cell_angle_alpha    131.623
_cell_angle_beta     106.259
_cell_angle_gamma    93.1986

_space_group_name_H-M_alt    "P 1"
_space_group_IT_number       1

loop_
  _space_group_symop_operation_xyz
  'x, y, z'

loop_
  _atom_site_type_symbol
  _atom_site_label
  _atom_site_symmetry_multiplicity
  _atom_site_fract_x
  _atom_site_fract_y
  _atom_site_fract_z
  _atom_site_occupancy
  Pd  Pd1       1.0  0.90284  0.25000  0.65284  1.0000
  Pd  Pd2       1.0  0.09716  0.75000  0.34716  1.0000
  N   N1        1.0  0.44729  0.25000  0.19729  1.0000
  N   N2        1.0  0.55271  0.75000  0.80271  1.0000
  N   N3        1.0  0.54170  0.34641  0.19528  1.0000
  N   N4        1.0  0.45830  0.65359  0.80472  1.0000
  N   N5        1.0  0.34887  0.15359  0.19528  1.0000
  N   N6        1.0  0.65113  0.84641  0.80472  1.0000
  N   N7        1.0  0.23260  0.29535  0.93725  1.0000
  N   N8        1.0  0.76740  0.70465  0.06275  1.0000
  N   N9        1.0  0.14189  0.20465  0.93725  1.0000
  N   N10       1.0  0.85811  0.79535  0.06275  1.0000
  N   N11       1.0  0.83555  0.38235  0.45320  1.0000
  N   N12       1.0  0.16445  0.61765  0.54680  1.0000
  N   N13       1.0  0.57085  0.11765  0.45320  1.0000
  N   N14       1.0  0.42915  0.88235  0.54680  1.0000
  N   N15       1.0  0.23082  0.64218  0.99110  1.0000
  N   N16       1.0  0.76918  0.76028  0.41136  1.0000
  N   N17       1.0  0.84892  0.85782  0.58864  1.0000
  N   N18       1.0  0.15108  0.73972  0.00890  1.0000
  N   N19       1.0  0.76918  0.35782  0.00890  1.0000
  N   N20       1.0  0.23082  0.23972  0.58864  1.0000
  N   N21       1.0  0.15108  0.14218  0.41136  1.0000
  N   N22       1.0  0.84892  0.26028  0.99110  1.0000
  N   N23       1.0  0.42813  0.71989  0.38297  1.0000
  N   N24       1.0  0.57187  0.95483  0.29176  1.0000
  N   N25       1.0  0.16308  0.78011  0.70824  1.0000
  N   N26       1.0  0.83692  0.54517  0.61703  1.0000
  N   N27       1.0  0.57187  0.28011  0.61703  1.0000
  N   N28       1.0  0.42813  0.04517  0.70824  1.0000
  N   N29       1.0  0.83692  0.21989  0.29176  1.0000
  N   N30       1.0  0.16308  0.45483  0.38297  1.0000
