data_image0
_chemical_formula_structural       Pd2N30
_chemical_formula_sum              "Pd2 N30"
_cell_length_a       5.91799
_cell_length_b       7.00777
_cell_length_c       9.69593
_cell_angle_alpha    96.8607
_cell_angle_beta     88.6564
_cell_angle_gamma    119.766

_space_group_name_H-M_alt    "P 1"
_space_group_IT_number       1

loop_
  _space_group_symop_operation_xyz
  'x, y, z'

loop_
  _atom_site_type_symbol
  _atom_site_label
  _atom_site_symmetry_multiplicity
  _atom_site_fract_x
  _atom_site_fract_y
  _atom_site_fract_z
  _atom_site_occupancy
  Pd  Pd1       1.0  0.20021  0.19918  0.00166  1.0000
  Pd  Pd2       1.0  0.79979  0.80082  0.99834  1.0000
  N   N1        1.0  0.03937  0.43408  0.82288  1.0000
  N   N2        1.0  0.96063  0.56592  0.17712  1.0000
  N   N3        1.0  0.29162  0.90018  0.17678  1.0000
  N   N4        1.0  0.70838  0.09982  0.82322  1.0000
  N   N5        1.0  0.10966  0.75943  0.25578  1.0000
  N   N6        1.0  0.89034  0.24057  0.74422  1.0000
  N   N7        1.0  0.40046  0.65579  0.41814  1.0000
  N   N8        1.0  0.59954  0.34421  0.58186  1.0000
  N   N9        1.0  0.20647  0.58124  0.74962  1.0000
  N   N10       1.0  0.79353  0.41876  0.25038  1.0000
  N   N11       1.0  0.06745  0.31978  0.40494  1.0000
  N   N12       1.0  0.93255  0.68022  0.59506  1.0000
  N   N13       1.0  0.50079  0.33916  0.88513  1.0000
  N   N14       1.0  0.49921  0.66084  0.11487  1.0000
  N   N15       1.0  0.26301  0.01640  0.59405  1.0000
  N   N16       1.0  0.73699  0.98360  0.40595  1.0000
  N   N17       1.0  0.29926  0.44275  0.36942  1.0000
  N   N18       1.0  0.70074  0.55725  0.63058  1.0000
  N   N19       1.0  0.06418  0.88662  0.67992  1.0000
  N   N20       1.0  0.93582  0.11338  0.32008  1.0000
  N   N21       1.0  0.67267  0.51540  0.88298  1.0000
  N   N22       1.0  0.32733  0.48460  0.11702  1.0000
  N   N23       1.0  0.63522  0.77631  0.36998  1.0000
  N   N24       1.0  0.36478  0.22369  0.63002  1.0000
  N   N25       1.0  0.54066  0.91981  0.74689  1.0000
  N   N26       1.0  0.45934  0.08019  0.25311  1.0000
  N   N27       1.0  0.12607  0.89178  0.81861  1.0000
  N   N28       1.0  0.87393  0.10822  0.18139  1.0000
  N   N29       1.0  0.31398  0.79682  0.81813  1.0000
  N   N30       1.0  0.68602  0.20318  0.18187  1.0000
