data_image0
_chemical_formula_structural       Pd8N12
_chemical_formula_sum              "Pd8 N12"
_cell_length_a       6.17274
_cell_length_b       6.17274
_cell_length_c       11.0077
_cell_angle_alpha    75.484
_cell_angle_beta     75.484
_cell_angle_gamma    58.5079

_space_group_name_H-M_alt    "P 1"
_space_group_IT_number       1

loop_
  _space_group_symop_operation_xyz
  'x, y, z'

loop_
  _atom_site_type_symbol
  _atom_site_label
  _atom_site_symmetry_multiplicity
  _atom_site_fract_x
  _atom_site_fract_y
  _atom_site_fract_z
  _atom_site_occupancy
  Pd  Pd1       1.0  0.70074  0.70074  0.41385  1.0000
  Pd  Pd2       1.0  0.84107  0.84107  0.73860  1.0000
  Pd  Pd3       1.0  0.00761  0.00761  0.49731  1.0000
  Pd  Pd4       1.0  0.24222  0.24222  0.24949  1.0000
  Pd  Pd5       1.0  0.24642  0.74656  0.24677  1.0000
  Pd  Pd6       1.0  0.30858  0.30858  0.55679  1.0000
  Pd  Pd7       1.0  0.74656  0.24642  0.24677  1.0000
  Pd  Pd8       1.0  0.79367  0.79367  0.07297  1.0000
  N   N1        1.0  0.64419  0.11050  0.60912  1.0000
  N   N2        1.0  0.89186  0.89186  0.36989  1.0000
  N   N3        1.0  0.11050  0.64419  0.60912  1.0000
  N   N4        1.0  0.10873  0.10873  0.15074  1.0000
  N   N5        1.0  0.88169  0.35043  0.36947  1.0000
  N   N6        1.0  0.85743  0.85743  0.89940  1.0000
  N   N7        1.0  0.13137  0.13137  0.59642  1.0000
  N   N8        1.0  0.35043  0.88169  0.36947  1.0000
  N   N9        1.0  0.11232  0.60418  0.15379  1.0000
  N   N10       1.0  0.60418  0.11232  0.15379  1.0000
  N   N11       1.0  0.37535  0.37535  0.35859  1.0000
  N   N12       1.0  0.60758  0.60758  0.15015  1.0000
