data_image0
_chemical_formula_structural       Pd2N14
_chemical_formula_sum              "Pd2 N14"
_cell_length_a       7.92359
_cell_length_b       7.92359
_cell_length_c       7.92359
_cell_angle_alpha    35.5383
_cell_angle_beta     35.5383
_cell_angle_gamma    35.5383

_space_group_name_H-M_alt    "P 1"
_space_group_IT_number       1

loop_
  _space_group_symop_operation_xyz
  'x, y, z'

loop_
  _atom_site_type_symbol
  _atom_site_label
  _atom_site_symmetry_multiplicity
  _atom_site_fract_x
  _atom_site_fract_y
  _atom_site_fract_z
  _atom_site_occupancy
  Pd  Pd1       1.0  0.19702  0.19702  0.19702  1.0000
  Pd  Pd2       1.0  0.80298  0.80298  0.80298  1.0000
  N   N1        1.0  0.75130  0.75130  0.22325  1.0000
  N   N2        1.0  0.22325  0.75130  0.75130  1.0000
  N   N3        1.0  0.39465  0.39465  0.39465  1.0000
  N   N4        1.0  0.60535  0.60535  0.60535  1.0000
  N   N5        1.0  0.38809  0.90428  0.90428  1.0000
  N   N6        1.0  0.90428  0.90428  0.38809  1.0000
  N   N7        1.0  0.90428  0.38809  0.90428  1.0000
  N   N8        1.0  0.09572  0.61191  0.09572  1.0000
  N   N9        1.0  0.61191  0.09572  0.09572  1.0000
  N   N10       1.0  0.09572  0.09572  0.61191  1.0000
  N   N11       1.0  0.77675  0.24870  0.24870  1.0000
  N   N12       1.0  0.24870  0.24870  0.77675  1.0000
  N   N13       1.0  0.24870  0.77675  0.24870  1.0000
  N   N14       1.0  0.75130  0.22325  0.75130  1.0000
