data_image0
_chemical_formula_structural       Pd12N24
_chemical_formula_sum              "Pd12 N24"
_cell_length_a       11.7702
_cell_length_b       11.7702
_cell_length_c       12.0929
_cell_angle_alpha    90
_cell_angle_beta     90
_cell_angle_gamma    120

_space_group_name_H-M_alt    "P 1"
_space_group_IT_number       1

loop_
  _space_group_symop_operation_xyz
  'x, y, z'

loop_
  _atom_site_type_symbol
  _atom_site_label
  _atom_site_symmetry_multiplicity
  _atom_site_fract_x
  _atom_site_fract_y
  _atom_site_fract_z
  _atom_site_occupancy
  Pd  Pd1       1.0  0.43231  0.56769  0.10548  1.0000
  Pd  Pd2       1.0  0.43231  0.86462  0.10548  1.0000
  Pd  Pd3       1.0  0.13538  0.56769  0.10548  1.0000
  Pd  Pd4       1.0  0.56769  0.43231  0.89452  1.0000
  Pd  Pd5       1.0  0.56769  0.13538  0.89452  1.0000
  Pd  Pd6       1.0  0.86462  0.43231  0.89452  1.0000
  Pd  Pd7       1.0  0.56769  0.43231  0.60548  1.0000
  Pd  Pd8       1.0  0.56769  0.13538  0.60548  1.0000
  Pd  Pd9       1.0  0.86462  0.43231  0.60548  1.0000
  Pd  Pd10      1.0  0.43231  0.56769  0.39452  1.0000
  Pd  Pd11      1.0  0.43231  0.86462  0.39452  1.0000
  Pd  Pd12      1.0  0.13538  0.56769  0.39452  1.0000
  N   N1        1.0  0.00000  0.50000  0.00000  1.0000
  N   N2        1.0  0.50000  0.50000  0.00000  1.0000
  N   N3        1.0  0.50000  0.00000  0.00000  1.0000
  N   N4        1.0  0.00000  0.50000  0.50000  1.0000
  N   N5        1.0  0.50000  0.50000  0.50000  1.0000
  N   N6        1.0  0.50000  0.00000  0.50000  1.0000
  N   N7        1.0  0.50346  0.75173  0.08244  1.0000
  N   N8        1.0  0.24827  0.75173  0.08244  1.0000
  N   N9        1.0  0.24827  0.49654  0.08244  1.0000
  N   N10       1.0  0.49654  0.24827  0.91756  1.0000
  N   N11       1.0  0.75173  0.24827  0.91756  1.0000
  N   N12       1.0  0.75173  0.50346  0.91756  1.0000
  N   N13       1.0  0.49654  0.24827  0.58244  1.0000
  N   N14       1.0  0.75173  0.24827  0.58244  1.0000
  N   N15       1.0  0.75173  0.50346  0.58244  1.0000
  N   N16       1.0  0.50346  0.75173  0.41756  1.0000
  N   N17       1.0  0.24827  0.75173  0.41756  1.0000
  N   N18       1.0  0.24827  0.49654  0.41756  1.0000
  N   N19       1.0  0.93723  0.46861  0.75000  1.0000
  N   N20       1.0  0.53139  0.46861  0.75000  1.0000
  N   N21       1.0  0.53139  0.06277  0.75000  1.0000
  N   N22       1.0  0.06277  0.53139  0.25000  1.0000
  N   N23       1.0  0.46861  0.53139  0.25000  1.0000
  N   N24       1.0  0.46861  0.93723  0.25000  1.0000
