data_image0
_chemical_formula_structural       Pd2N29
_chemical_formula_sum              "Pd2 N29"
_cell_length_a       8.96382
_cell_length_b       8.96382
_cell_length_c       8.96382
_cell_angle_alpha    131.556
_cell_angle_beta     107.585
_cell_angle_gamma    91.9788

_space_group_name_H-M_alt    "P 1"
_space_group_IT_number       1

loop_
  _space_group_symop_operation_xyz
  'x, y, z'

loop_
  _atom_site_type_symbol
  _atom_site_label
  _atom_site_symmetry_multiplicity
  _atom_site_fract_x
  _atom_site_fract_y
  _atom_site_fract_z
  _atom_site_occupancy
  Pd  Pd1       1.0  0.13763  0.50000  0.63763  1.0000
  Pd  Pd2       1.0  0.45786  0.00000  0.45786  1.0000
  N   N1        1.0  0.69858  0.50000  0.19858  1.0000
  N   N2        1.0  0.52835  0.87188  0.65648  1.0000
  N   N3        1.0  0.79016  0.59542  0.19475  1.0000
  N   N4        1.0  0.59933  0.40458  0.19475  1.0000
  N   N5        1.0  0.87418  0.10941  0.76476  1.0000
  N   N6        1.0  0.65535  0.89059  0.76476  1.0000
  N   N7        1.0  0.47780  0.47644  0.58433  1.0000
  N   N8        1.0  0.10789  0.10653  0.58433  1.0000
  N   N9        1.0  0.39212  0.38506  0.40915  1.0000
  N   N10       1.0  0.02409  0.01703  0.40915  1.0000
  N   N11       1.0  0.10789  0.52356  0.00136  1.0000
  N   N12       1.0  0.47780  0.89347  0.00136  1.0000
  N   N13       1.0  0.02409  0.61494  0.00706  1.0000
  N   N14       1.0  0.39212  0.98297  0.00706  1.0000
  N   N15       1.0  0.48986  0.54500  0.94485  1.0000
  N   N16       1.0  0.39985  0.45500  0.94485  1.0000
  N   N17       1.0  0.08865  0.04482  0.04383  1.0000
  N   N18       1.0  0.99901  0.95518  0.04383  1.0000
  N   N19       1.0  0.68316  0.24290  0.63132  1.0000
  N   N20       1.0  0.38842  0.94816  0.63132  1.0000
  N   N21       1.0  0.38842  0.75710  0.44026  1.0000
  N   N22       1.0  0.68316  0.05184  0.44026  1.0000
  N   N23       1.0  0.09240  0.47553  0.29216  1.0000
  N   N24       1.0  0.81663  0.19976  0.29216  1.0000
  N   N25       1.0  0.81663  0.52447  0.61687  1.0000
  N   N26       1.0  0.09240  0.80024  0.61687  1.0000
  N   N27       1.0  0.09114  0.63721  0.45393  1.0000
  N   N28       1.0  0.81672  0.36279  0.45393  1.0000
  N   N29       1.0  0.78460  0.12812  0.65648  1.0000
