data_image0
_chemical_formula_structural       N28Pd12
_chemical_formula_sum              "N28 Pd12"
_cell_length_a       6.43933
_cell_length_b       7.84984
_cell_length_c       9.03364
_cell_angle_alpha    90
_cell_angle_beta     90
_cell_angle_gamma    90

_space_group_name_H-M_alt    "P 1"
_space_group_IT_number       1

loop_
  _space_group_symop_operation_xyz
  'x, y, z'

loop_
  _atom_site_type_symbol
  _atom_site_label
  _atom_site_symmetry_multiplicity
  _atom_site_fract_x
  _atom_site_fract_y
  _atom_site_fract_z
  _atom_site_occupancy
  N   N1        1.0  0.05941  0.11032  0.80688  1.0000
  N   N2        1.0  0.55941  0.38968  0.69312  1.0000
  N   N3        1.0  0.94059  0.61032  0.19312  1.0000
  N   N4        1.0  0.44059  0.88968  0.30688  1.0000
  N   N5        1.0  0.94059  0.88968  0.19312  1.0000
  N   N6        1.0  0.44059  0.61032  0.30688  1.0000
  N   N7        1.0  0.05941  0.38968  0.80688  1.0000
  N   N8        1.0  0.55941  0.11032  0.69312  1.0000
  N   N9        1.0  0.37088  0.10260  0.06342  1.0000
  N   N10       1.0  0.87088  0.39740  0.43658  1.0000
  N   N11       1.0  0.62912  0.60260  0.93658  1.0000
  N   N12       1.0  0.12912  0.89740  0.56342  1.0000
  N   N13       1.0  0.62912  0.89740  0.93658  1.0000
  N   N14       1.0  0.12912  0.60260  0.56342  1.0000
  N   N15       1.0  0.37088  0.39740  0.06342  1.0000
  N   N16       1.0  0.87088  0.10260  0.43658  1.0000
  N   N17       1.0  0.30639  0.75000  0.73972  1.0000
  N   N18       1.0  0.80639  0.75000  0.76028  1.0000
  N   N19       1.0  0.69361  0.25000  0.26028  1.0000
  N   N20       1.0  0.19361  0.25000  0.23972  1.0000
  N   N21       1.0  0.19724  0.75000  0.61792  1.0000
  N   N22       1.0  0.69724  0.75000  0.88208  1.0000
  N   N23       1.0  0.80276  0.25000  0.38208  1.0000
  N   N24       1.0  0.30276  0.25000  0.11792  1.0000
  N   N25       1.0  0.36015  0.75000  0.25093  1.0000
  N   N26       1.0  0.86015  0.75000  0.24907  1.0000
  N   N27       1.0  0.63985  0.25000  0.74907  1.0000
  N   N28       1.0  0.13985  0.25000  0.75093  1.0000
  Pd  Pd1       1.0  0.66946  0.03133  0.13213  1.0000
  Pd  Pd2       1.0  0.16946  0.46867  0.36787  1.0000
  Pd  Pd3       1.0  0.33054  0.53133  0.86787  1.0000
  Pd  Pd4       1.0  0.83054  0.96867  0.63213  1.0000
  Pd  Pd5       1.0  0.33054  0.96867  0.86787  1.0000
  Pd  Pd6       1.0  0.83054  0.53133  0.63213  1.0000
  Pd  Pd7       1.0  0.66946  0.46867  0.13213  1.0000
  Pd  Pd8       1.0  0.16946  0.03133  0.36787  1.0000
  Pd  Pd9       1.0  0.14405  0.75000  0.05176  1.0000
  Pd  Pd10      1.0  0.64405  0.75000  0.44824  1.0000
  Pd  Pd11      1.0  0.85595  0.25000  0.94824  1.0000
  Pd  Pd12      1.0  0.35595  0.25000  0.55176  1.0000
