data_image0
_chemical_formula_structural       N6Pd6
_chemical_formula_sum              "N6 Pd6"
_cell_length_a       5.51218
_cell_length_b       5.51218
_cell_length_c       6.07942
_cell_angle_alpha    90
_cell_angle_beta     90
_cell_angle_gamma    120

_space_group_name_H-M_alt    "P 1"
_space_group_IT_number       1

loop_
  _space_group_symop_operation_xyz
  'x, y, z'

loop_
  _atom_site_type_symbol
  _atom_site_label
  _atom_site_symmetry_multiplicity
  _atom_site_fract_x
  _atom_site_fract_y
  _atom_site_fract_z
  _atom_site_occupancy
  N   N1        1.0  0.33333  0.66667  0.54896  1.0000
  N   N2        1.0  0.66667  0.33333  0.45104  1.0000
  N   N3        1.0  0.00000  0.00000  0.50000  1.0000
  N   N4        1.0  0.66667  0.33333  0.04896  1.0000
  N   N5        1.0  0.33333  0.66667  0.95104  1.0000
  N   N6        1.0  0.00000  0.00000  0.00000  1.0000
  Pd  Pd1       1.0  0.83395  0.16605  0.25000  1.0000
  Pd  Pd2       1.0  0.16605  0.83395  0.75000  1.0000
  Pd  Pd3       1.0  0.66790  0.83395  0.75000  1.0000
  Pd  Pd4       1.0  0.16605  0.33210  0.75000  1.0000
  Pd  Pd5       1.0  0.33210  0.16605  0.25000  1.0000
  Pd  Pd6       1.0  0.83395  0.66790  0.25000  1.0000
