data_image0
_chemical_formula_structural       Pd2N8
_chemical_formula_sum              "Pd2 N8"
_cell_length_a       5.22128
_cell_length_b       5.22128
_cell_length_c       5.22128
_cell_angle_alpha    110.331
_cell_angle_beta     110.331
_cell_angle_gamma    107.764

_space_group_name_H-M_alt    "P 1"
_space_group_IT_number       1

loop_
  _space_group_symop_operation_xyz
  'x, y, z'

loop_
  _atom_site_type_symbol
  _atom_site_label
  _atom_site_symmetry_multiplicity
  _atom_site_fract_x
  _atom_site_fract_y
  _atom_site_fract_z
  _atom_site_occupancy
  Pd  Pd1       1.0  0.50000  0.00000  0.50000  1.0000
  Pd  Pd2       1.0  0.00000  0.50000  0.50000  1.0000
  N   N1        1.0  0.38465  0.88465  0.03209  1.0000
  N   N2        1.0  0.14744  0.64744  0.03209  1.0000
  N   N3        1.0  0.61535  0.11535  0.96791  1.0000
  N   N4        1.0  0.11535  0.14744  0.50000  1.0000
  N   N5        1.0  0.85256  0.35256  0.96791  1.0000
  N   N6        1.0  0.35256  0.38465  0.50000  1.0000
  N   N7        1.0  0.88465  0.85256  0.50000  1.0000
  N   N8        1.0  0.64744  0.61535  0.50000  1.0000
