data_image0
_chemical_formula_structural       PdN8
_chemical_formula_sum              "Pd1 N8"
_cell_length_a       8.20322
_cell_length_b       8.20322
_cell_length_c       8.20322
_cell_angle_alpha    163.46
_cell_angle_beta     138.622
_cell_angle_gamma    44.8476

_space_group_name_H-M_alt    "P 1"
_space_group_IT_number       1

loop_
  _space_group_symop_operation_xyz
  'x, y, z'

loop_
  _atom_site_type_symbol
  _atom_site_label
  _atom_site_symmetry_multiplicity
  _atom_site_fract_x
  _atom_site_fract_y
  _atom_site_fract_z
  _atom_site_occupancy
  Pd  Pd1       1.0  0.69228  0.69228  0.00000  1.0000
  N   N1        1.0  0.44889  0.94889  0.50000  1.0000
  N   N2        1.0  0.15958  0.15958  0.00000  1.0000
  N   N3        1.0  0.52206  0.02206  0.50000  1.0000
  N   N4        1.0  0.88465  0.88465  0.00000  1.0000
  N   N5        1.0  0.97836  0.65760  0.32076  1.0000
  N   N6        1.0  0.69091  0.36317  0.32775  1.0000
  N   N7        1.0  0.03542  0.36317  0.67225  1.0000
  N   N8        1.0  0.33685  0.65760  0.67924  1.0000
