data_image0
_chemical_formula_structural       Pd16N32
_chemical_formula_sum              "Pd16 N32"
_cell_length_a       9.64427
_cell_length_b       9.64427
_cell_length_c       16.6593
_cell_angle_alpha    90
_cell_angle_beta     90
_cell_angle_gamma    101.134

_space_group_name_H-M_alt    "P 1"
_space_group_IT_number       1

loop_
  _space_group_symop_operation_xyz
  'x, y, z'

loop_
  _atom_site_type_symbol
  _atom_site_label
  _atom_site_symmetry_multiplicity
  _atom_site_fract_x
  _atom_site_fract_y
  _atom_site_fract_z
  _atom_site_occupancy
  Pd  Pd1       1.0  0.18469  0.58906  0.31321  1.0000
  Pd  Pd2       1.0  0.58906  0.18469  0.68679  1.0000
  Pd  Pd3       1.0  0.81531  0.41094  0.31321  1.0000
  Pd  Pd4       1.0  0.41094  0.81531  0.68679  1.0000
  Pd  Pd5       1.0  0.31550  0.90898  0.18918  1.0000
  Pd  Pd6       1.0  0.90898  0.31550  0.81082  1.0000
  Pd  Pd7       1.0  0.68450  0.09102  0.18918  1.0000
  Pd  Pd8       1.0  0.09102  0.68450  0.81082  1.0000
  Pd  Pd9       1.0  0.33869  0.66131  0.50000  1.0000
  Pd  Pd10      1.0  0.66131  0.33869  0.50000  1.0000
  Pd  Pd11      1.0  0.50000  0.50000  0.36877  1.0000
  Pd  Pd12      1.0  0.50000  0.50000  0.63123  1.0000
  Pd  Pd13      1.0  0.00000  0.00000  0.13464  1.0000
  Pd  Pd14      1.0  0.00000  0.00000  0.86536  1.0000
  Pd  Pd15      1.0  0.15909  0.84091  0.00000  1.0000
  Pd  Pd16      1.0  0.84091  0.15909  0.00000  1.0000
  N   N1        1.0  0.00000  0.50000  0.28502  1.0000
  N   N2        1.0  0.50000  0.00000  0.71498  1.0000
  N   N3        1.0  0.25510  0.74543  0.24962  1.0000
  N   N4        1.0  0.74543  0.25510  0.75038  1.0000
  N   N5        1.0  0.74490  0.25457  0.24962  1.0000
  N   N6        1.0  0.25457  0.74490  0.75038  1.0000
  N   N7        1.0  0.18746  0.63922  0.42500  1.0000
  N   N8        1.0  0.63922  0.18746  0.57500  1.0000
  N   N9        1.0  0.81254  0.36078  0.42500  1.0000
  N   N10       1.0  0.36078  0.81254  0.57500  1.0000
  N   N11       1.0  0.31982  0.46714  0.31797  1.0000
  N   N12       1.0  0.46714  0.31982  0.68203  1.0000
  N   N13       1.0  0.68018  0.53286  0.31797  1.0000
  N   N14       1.0  0.53286  0.68018  0.68203  1.0000
  N   N15       1.0  0.30875  0.86454  0.07626  1.0000
  N   N16       1.0  0.86454  0.30875  0.92374  1.0000
  N   N17       1.0  0.69125  0.13546  0.07626  1.0000
  N   N18       1.0  0.13546  0.69125  0.92374  1.0000
  N   N19       1.0  0.17775  0.02778  0.18889  1.0000
  N   N20       1.0  0.02778  0.17775  0.81111  1.0000
  N   N21       1.0  0.82225  0.97222  0.18889  1.0000
  N   N22       1.0  0.97222  0.82225  0.81111  1.0000
  N   N23       1.0  0.48656  0.66899  0.42347  1.0000
  N   N24       1.0  0.66899  0.48656  0.57653  1.0000
  N   N25       1.0  0.51344  0.33101  0.42347  1.0000
  N   N26       1.0  0.33101  0.51344  0.57653  1.0000
  N   N27       1.0  0.50000  0.00000  0.21649  1.0000
  N   N28       1.0  0.00000  0.50000  0.78351  1.0000
  N   N29       1.0  0.98732  0.16684  0.07814  1.0000
  N   N30       1.0  0.16684  0.98732  0.92186  1.0000
  N   N31       1.0  0.01268  0.83316  0.07814  1.0000
  N   N32       1.0  0.83316  0.01268  0.92186  1.0000
