data_image0
_chemical_formula_structural       Pd2N4
_chemical_formula_sum              "Pd2 N4"
_cell_length_a       8.60499
_cell_length_b       8.60499
_cell_length_c       8.60499
_cell_angle_alpha    160.291
_cell_angle_beta     154.55
_cell_angle_gamma    32.3951

_space_group_name_H-M_alt    "P 1"
_space_group_IT_number       1

loop_
  _space_group_symop_operation_xyz
  'x, y, z'

loop_
  _atom_site_type_symbol
  _atom_site_label
  _atom_site_symmetry_multiplicity
  _atom_site_fract_x
  _atom_site_fract_y
  _atom_site_fract_z
  _atom_site_occupancy
  Pd  Pd1       1.0  0.56652  0.31652  0.25000  1.0000
  Pd  Pd2       1.0  0.43348  0.68348  0.75000  1.0000
  N   N1        1.0  0.10586  0.85586  0.25000  1.0000
  N   N2        1.0  0.89414  0.14414  0.75000  1.0000
  N   N3        1.0  0.17530  0.92530  0.25000  1.0000
  N   N4        1.0  0.82470  0.07470  0.75000  1.0000
