data_image0
_chemical_formula_structural       Pd10N12
_chemical_formula_sum              "Pd10 N12"
_cell_length_a       5.97459
_cell_length_b       6.10977
_cell_length_c       7.45664
_cell_angle_alpha    90.4452
_cell_angle_beta     107.323
_cell_angle_gamma    104.6

_space_group_name_H-M_alt    "P 1"
_space_group_IT_number       1

loop_
  _space_group_symop_operation_xyz
  'x, y, z'

loop_
  _atom_site_type_symbol
  _atom_site_label
  _atom_site_symmetry_multiplicity
  _atom_site_fract_x
  _atom_site_fract_y
  _atom_site_fract_z
  _atom_site_occupancy
  Pd  Pd1       1.0  0.63254  0.41597  0.18860  1.0000
  Pd  Pd2       1.0  0.95051  0.74110  0.52051  1.0000
  Pd  Pd3       1.0  0.33119  0.09763  0.82001  1.0000
  Pd  Pd4       1.0  0.66881  0.90237  0.17999  1.0000
  Pd  Pd5       1.0  0.04949  0.25890  0.47949  1.0000
  Pd  Pd6       1.0  0.36746  0.58403  0.81140  1.0000
  Pd  Pd7       1.0  0.00000  0.50000  0.00000  1.0000
  Pd  Pd8       1.0  0.31702  0.82289  0.34765  1.0000
  Pd  Pd9       1.0  0.68298  0.17711  0.65235  1.0000
  Pd  Pd10      1.0  0.00000  0.00000  0.00000  1.0000
  N   N1        1.0  0.72285  0.67647  0.98593  1.0000
  N   N2        1.0  0.04864  0.00337  0.29841  1.0000
  N   N3        1.0  0.40114  0.33718  0.64369  1.0000
  N   N4        1.0  0.59886  0.66282  0.35631  1.0000
  N   N5        1.0  0.95136  0.99663  0.70159  1.0000
  N   N6        1.0  0.27715  0.32353  0.01407  1.0000
  N   N7        1.0  0.73143  0.18776  0.96758  1.0000
  N   N8        1.0  0.02987  0.51733  0.30482  1.0000
  N   N9        1.0  0.36896  0.85041  0.63715  1.0000
  N   N10       1.0  0.63104  0.14959  0.36285  1.0000
  N   N11       1.0  0.97013  0.48267  0.69518  1.0000
  N   N12       1.0  0.26857  0.81224  0.03242  1.0000
