data_image0
_chemical_formula_structural       Pd2N36
_chemical_formula_sum              "Pd2 N36"
_cell_length_a       9.46014
_cell_length_b       9.46014
_cell_length_c       7.38395
_cell_angle_alpha    90
_cell_angle_beta     90
_cell_angle_gamma    120

_space_group_name_H-M_alt    "P 1"
_space_group_IT_number       1

loop_
  _space_group_symop_operation_xyz
  'x, y, z'

loop_
  _atom_site_type_symbol
  _atom_site_label
  _atom_site_symmetry_multiplicity
  _atom_site_fract_x
  _atom_site_fract_y
  _atom_site_fract_z
  _atom_site_occupancy
  Pd  Pd1       1.0  0.33333  0.66667  0.98741  1.0000
  Pd  Pd2       1.0  0.66667  0.33333  0.01259  1.0000
  N   N1        1.0  0.46690  0.25665  0.83188  1.0000
  N   N2        1.0  0.21025  0.46690  0.16812  1.0000
  N   N3        1.0  0.64309  0.52276  0.30591  1.0000
  N   N4        1.0  0.10435  0.69678  0.55995  1.0000
  N   N5        1.0  0.78975  0.53310  0.83188  1.0000
  N   N6        1.0  0.78344  0.78094  0.83476  1.0000
  N   N7        1.0  0.54630  0.12108  0.16553  1.0000
  N   N8        1.0  0.34289  0.12524  0.84087  1.0000
  N   N9        1.0  0.78235  0.65711  0.84087  1.0000
  N   N10       1.0  0.59243  0.89565  0.55995  1.0000
  N   N11       1.0  0.74335  0.21025  0.83188  1.0000
  N   N12       1.0  0.87966  0.35691  0.30591  1.0000
  N   N13       1.0  0.00249  0.78344  0.16524  1.0000
  N   N14       1.0  0.99751  0.21656  0.83476  1.0000
  N   N15       1.0  0.87892  0.42522  0.16553  1.0000
  N   N16       1.0  0.12108  0.57478  0.83447  1.0000
  N   N17       1.0  0.89565  0.30322  0.44005  1.0000
  N   N18       1.0  0.21906  0.00249  0.83476  1.0000
  N   N19       1.0  0.65711  0.87476  0.15913  1.0000
  N   N20       1.0  0.12034  0.64309  0.69409  1.0000
  N   N21       1.0  0.78094  0.99751  0.16524  1.0000
  N   N22       1.0  0.35691  0.47724  0.69409  1.0000
  N   N23       1.0  0.42522  0.54630  0.83447  1.0000
  N   N24       1.0  0.87476  0.21765  0.84087  1.0000
  N   N25       1.0  0.40757  0.10435  0.44005  1.0000
  N   N26       1.0  0.25665  0.78975  0.16812  1.0000
  N   N27       1.0  0.45370  0.87892  0.83447  1.0000
  N   N28       1.0  0.52276  0.87966  0.69409  1.0000
  N   N29       1.0  0.69678  0.59243  0.44005  1.0000
  N   N30       1.0  0.53310  0.74335  0.16812  1.0000
  N   N31       1.0  0.21656  0.21906  0.16524  1.0000
  N   N32       1.0  0.47724  0.12034  0.30591  1.0000
  N   N33       1.0  0.21765  0.34289  0.15913  1.0000
  N   N34       1.0  0.12524  0.78235  0.15913  1.0000
  N   N35       1.0  0.30322  0.40757  0.55995  1.0000
  N   N36       1.0  0.57478  0.45370  0.16553  1.0000
