data_image0
_chemical_formula_structural       Pd4N8
_chemical_formula_sum              "Pd4 N8"
_cell_length_a       3.26034
_cell_length_b       5.68067
_cell_length_c       7.58877
_cell_angle_alpha    90
_cell_angle_beta     90
_cell_angle_gamma    90

_space_group_name_H-M_alt    "P 1"
_space_group_IT_number       1

loop_
  _space_group_symop_operation_xyz
  'x, y, z'

loop_
  _atom_site_type_symbol
  _atom_site_label
  _atom_site_symmetry_multiplicity
  _atom_site_fract_x
  _atom_site_fract_y
  _atom_site_fract_z
  _atom_site_occupancy
  Pd  Pd1       1.0  0.28471  0.25000  0.50000  1.0000
  Pd  Pd2       1.0  0.71529  0.75000  0.00000  1.0000
  Pd  Pd3       1.0  0.28471  0.25000  0.00000  1.0000
  Pd  Pd4       1.0  0.71529  0.75000  0.50000  1.0000
  N   N1        1.0  0.77834  0.08349  0.67158  1.0000
  N   N2        1.0  0.22166  0.91651  0.17158  1.0000
  N   N3        1.0  0.77834  0.41651  0.17158  1.0000
  N   N4        1.0  0.22166  0.58349  0.67158  1.0000
  N   N5        1.0  0.77834  0.08349  0.82842  1.0000
  N   N6        1.0  0.22166  0.91651  0.32842  1.0000
  N   N7        1.0  0.77834  0.41651  0.32842  1.0000
  N   N8        1.0  0.22166  0.58349  0.82842  1.0000
