data_image0
_chemical_formula_structural       N4Pd2
_chemical_formula_sum              "N4 Pd2"
_cell_length_a       7.41881
_cell_length_b       7.13941
_cell_length_c       3.1169
_cell_angle_alpha    82.71
_cell_angle_beta     72.6611
_cell_angle_gamma    24.6288

_space_group_name_H-M_alt    "P 1"
_space_group_IT_number       1

loop_
  _space_group_symop_operation_xyz
  'x, y, z'

loop_
  _atom_site_type_symbol
  _atom_site_label
  _atom_site_symmetry_multiplicity
  _atom_site_fract_x
  _atom_site_fract_y
  _atom_site_fract_z
  _atom_site_occupancy
  N   N1        1.0  0.75388  0.42128  0.53891  1.0000
  N   N2        1.0  0.28593  0.53891  0.42128  1.0000
  N   N3        1.0  0.71109  0.96407  0.49612  1.0000
  N   N4        1.0  0.82872  0.49612  0.96407  1.0000
  Pd  Pd1       1.0  0.08379  0.91621  0.91621  1.0000
  Pd  Pd2       1.0  0.33379  0.16621  0.16621  1.0000
