data_image0
_chemical_formula_structural       Pd8N16
_chemical_formula_sum              "Pd8 N16"
_cell_length_a       5.67722
_cell_length_b       9.69794
_cell_length_c       12.0706
_cell_angle_alpha    90
_cell_angle_beta     90
_cell_angle_gamma    90

_space_group_name_H-M_alt    "P 1"
_space_group_IT_number       1

loop_
  _space_group_symop_operation_xyz
  'x, y, z'

loop_
  _atom_site_type_symbol
  _atom_site_label
  _atom_site_symmetry_multiplicity
  _atom_site_fract_x
  _atom_site_fract_y
  _atom_site_fract_z
  _atom_site_occupancy
  Pd  Pd1       1.0  0.57756  0.68415  0.36882  1.0000
  Pd  Pd2       1.0  0.42244  0.68415  0.63118  1.0000
  Pd  Pd3       1.0  0.57756  0.31585  0.63118  1.0000
  Pd  Pd4       1.0  0.42244  0.31585  0.36882  1.0000
  Pd  Pd5       1.0  0.92244  0.81585  0.13118  1.0000
  Pd  Pd6       1.0  0.07756  0.81585  0.86882  1.0000
  Pd  Pd7       1.0  0.92244  0.18415  0.86882  1.0000
  Pd  Pd8       1.0  0.07756  0.18415  0.13118  1.0000
  N   N1        1.0  0.50000  0.77516  0.50000  1.0000
  N   N2        1.0  0.50000  0.22484  0.50000  1.0000
  N   N3        1.0  0.00000  0.72484  0.00000  1.0000
  N   N4        1.0  0.00000  0.27516  0.00000  1.0000
  N   N5        1.0  0.50000  0.50000  0.35511  1.0000
  N   N6        1.0  0.50000  0.50000  0.64489  1.0000
  N   N7        1.0  0.00000  0.00000  0.14489  1.0000
  N   N8        1.0  0.00000  0.00000  0.85511  1.0000
  N   N9        1.0  0.00000  0.55762  0.50000  1.0000
  N   N10       1.0  0.00000  0.44238  0.50000  1.0000
  N   N11       1.0  0.50000  0.94238  0.00000  1.0000
  N   N12       1.0  0.50000  0.05762  0.00000  1.0000
  N   N13       1.0  0.75000  0.75000  0.25000  1.0000
  N   N14       1.0  0.25000  0.75000  0.75000  1.0000
  N   N15       1.0  0.75000  0.25000  0.75000  1.0000
  N   N16       1.0  0.25000  0.25000  0.25000  1.0000
