data_image0
_chemical_formula_structural       S4Pd4
_chemical_formula_sum              "S4 Pd4"
_cell_length_a       7.10983
_cell_length_b       7.10983
_cell_length_c       7.10983
_cell_angle_alpha    141.729
_cell_angle_beta     141.729
_cell_angle_gamma    55.2375

_space_group_name_H-M_alt    "P 1"
_space_group_IT_number       1

loop_
  _space_group_symop_operation_xyz
  'x, y, z'

loop_
  _atom_site_type_symbol
  _atom_site_label
  _atom_site_symmetry_multiplicity
  _atom_site_fract_x
  _atom_site_fract_y
  _atom_site_fract_z
  _atom_site_occupancy
  S   S1        1.0  0.87500  0.62500  0.75000  1.0000
  S   S2        1.0  0.37500  0.12500  0.25000  1.0000
  S   S3        1.0  0.87500  0.12500  0.75000  1.0000
  S   S4        1.0  0.87500  0.12500  0.25000  1.0000
  Pd  Pd1       1.0  0.69671  0.69671  0.00000  1.0000
  Pd  Pd2       1.0  0.44671  0.94671  0.50000  1.0000
  Pd  Pd3       1.0  0.05329  0.55329  0.50000  1.0000
  Pd  Pd4       1.0  0.30329  0.30329  0.00000  1.0000
