data_image0
_chemical_formula_structural       PdN2
_chemical_formula_sum              "Pd1 N2"
_cell_length_a       4.69854
_cell_length_b       4.69854
_cell_length_c       4.69854
_cell_angle_alpha    143.723
_cell_angle_beta     115.365
_cell_angle_gamma    76.435

_space_group_name_H-M_alt    "P 1"
_space_group_IT_number       1

loop_
  _space_group_symop_operation_xyz
  'x, y, z'

loop_
  _atom_site_type_symbol
  _atom_site_label
  _atom_site_symmetry_multiplicity
  _atom_site_fract_x
  _atom_site_fract_y
  _atom_site_fract_z
  _atom_site_occupancy
  Pd  Pd1       1.0  0.00000  0.00000  0.00000  1.0000
  N   N1        1.0  0.61325  0.00000  0.61325  1.0000
  N   N2        1.0  0.38675  0.00000  0.38675  1.0000
