data_image0
_chemical_formula_structural       Pd4N44
_chemical_formula_sum              "Pd4 N44"
_cell_length_a       6.54341
_cell_length_b       5.74463
_cell_length_c       15.6448
_cell_angle_alpha    95.4115
_cell_angle_beta     90
_cell_angle_gamma    90

_space_group_name_H-M_alt    "P 1"
_space_group_IT_number       1

loop_
  _space_group_symop_operation_xyz
  'x, y, z'

loop_
  _atom_site_type_symbol
  _atom_site_label
  _atom_site_symmetry_multiplicity
  _atom_site_fract_x
  _atom_site_fract_y
  _atom_site_fract_z
  _atom_site_occupancy
  Pd  Pd1       1.0  0.48743  0.81154  0.66120  1.0000
  Pd  Pd2       1.0  0.51257  0.18846  0.33880  1.0000
  Pd  Pd3       1.0  0.98743  0.18846  0.33880  1.0000
  Pd  Pd4       1.0  0.01257  0.81154  0.66120  1.0000
  N   N1        1.0  0.41212  0.85555  0.09002  1.0000
  N   N2        1.0  0.58788  0.14445  0.90998  1.0000
  N   N3        1.0  0.91212  0.14445  0.90998  1.0000
  N   N4        1.0  0.08788  0.85555  0.09002  1.0000
  N   N5        1.0  0.75000  0.90164  0.19989  1.0000
  N   N6        1.0  0.25000  0.09836  0.80011  1.0000
  N   N7        1.0  0.92164  0.79854  0.05771  1.0000
  N   N8        1.0  0.07836  0.20146  0.94229  1.0000
  N   N9        1.0  0.42164  0.20146  0.94229  1.0000
  N   N10       1.0  0.57836  0.79854  0.05771  1.0000
  N   N11       1.0  0.75000  0.66491  0.40979  1.0000
  N   N12       1.0  0.25000  0.33509  0.59021  1.0000
  N   N13       1.0  0.75000  0.18835  0.95950  1.0000
  N   N14       1.0  0.25000  0.81165  0.04050  1.0000
  N   N15       1.0  0.33720  0.92050  0.27515  1.0000
  N   N16       1.0  0.66280  0.07950  0.72485  1.0000
  N   N17       1.0  0.83720  0.07950  0.72485  1.0000
  N   N18       1.0  0.16280  0.92050  0.27515  1.0000
  N   N19       1.0  0.75000  0.70147  0.59761  1.0000
  N   N20       1.0  0.25000  0.29853  0.40239  1.0000
  N   N21       1.0  0.75000  0.85564  0.12511  1.0000
  N   N22       1.0  0.25000  0.14436  0.87489  1.0000
  N   N23       1.0  0.91683  0.54070  0.39453  1.0000
  N   N24       1.0  0.08317  0.45930  0.60547  1.0000
  N   N25       1.0  0.41683  0.45930  0.60547  1.0000
  N   N26       1.0  0.58317  0.54070  0.39453  1.0000
  N   N27       1.0  0.75000  0.37557  0.20422  1.0000
  N   N28       1.0  0.25000  0.62443  0.79578  1.0000
  N   N29       1.0  0.75000  0.63103  0.84129  1.0000
  N   N30       1.0  0.25000  0.36897  0.15871  1.0000
  N   N31       1.0  0.41782  0.38398  0.20546  1.0000
  N   N32       1.0  0.58218  0.61602  0.79454  1.0000
  N   N33       1.0  0.91782  0.61602  0.79454  1.0000
  N   N34       1.0  0.08218  0.38398  0.20546  1.0000
  N   N35       1.0  0.42165  0.66366  0.41791  1.0000
  N   N36       1.0  0.57835  0.33634  0.58209  1.0000
  N   N37       1.0  0.92165  0.33634  0.58209  1.0000
  N   N38       1.0  0.07835  0.66366  0.41791  1.0000
  N   N39       1.0  0.91668  0.37613  0.15702  1.0000
  N   N40       1.0  0.08332  0.62387  0.84298  1.0000
  N   N41       1.0  0.41668  0.62387  0.84298  1.0000
  N   N42       1.0  0.58332  0.37613  0.15702  1.0000
  N   N43       1.0  0.75000  0.46996  0.59168  1.0000
  N   N44       1.0  0.25000  0.53004  0.40832  1.0000
