data_image0
_chemical_formula_structural       Pd2S26
_chemical_formula_sum              "Pd2 S26"
_cell_length_a       9.55257
_cell_length_b       9.55257
_cell_length_c       9.55257
_cell_angle_alpha    60
_cell_angle_beta     60
_cell_angle_gamma    60

_space_group_name_H-M_alt    "P 1"
_space_group_IT_number       1

loop_
  _space_group_symop_operation_xyz
  'x, y, z'

loop_
  _atom_site_type_symbol
  _atom_site_label
  _atom_site_symmetry_multiplicity
  _atom_site_fract_x
  _atom_site_fract_y
  _atom_site_fract_z
  _atom_site_occupancy
  Pd  Pd1       1.0  0.25000  0.25000  0.25000  1.0000
  Pd  Pd2       1.0  0.75000  0.75000  0.75000  1.0000
  S   S1        1.0  0.50000  0.50000  0.50000  1.0000
  S   S2        1.0  0.00000  0.00000  0.00000  1.0000
  S   S3        1.0  0.84751  0.54071  0.15249  1.0000
  S   S4        1.0  0.15249  0.45929  0.84751  1.0000
  S   S5        1.0  0.54071  0.84751  0.45929  1.0000
  S   S6        1.0  0.45929  0.15249  0.54071  1.0000
  S   S7        1.0  0.34751  0.95929  0.65249  1.0000
  S   S8        1.0  0.65249  0.04071  0.34751  1.0000
  S   S9        1.0  0.95929  0.34751  0.04071  1.0000
  S   S10       1.0  0.04071  0.65249  0.95929  1.0000
  S   S11       1.0  0.15249  0.84751  0.54071  1.0000
  S   S12       1.0  0.84751  0.15249  0.45929  1.0000
  S   S13       1.0  0.45929  0.54071  0.84751  1.0000
  S   S14       1.0  0.54071  0.45929  0.15249  1.0000
  S   S15       1.0  0.65249  0.34751  0.95929  1.0000
  S   S16       1.0  0.34751  0.65249  0.04071  1.0000
  S   S17       1.0  0.04071  0.95929  0.34751  1.0000
  S   S18       1.0  0.95929  0.04071  0.65249  1.0000
  S   S19       1.0  0.54071  0.15249  0.84751  1.0000
  S   S20       1.0  0.45929  0.84751  0.15249  1.0000
  S   S21       1.0  0.84751  0.45929  0.54071  1.0000
  S   S22       1.0  0.15249  0.54071  0.45929  1.0000
  S   S23       1.0  0.95929  0.65249  0.34751  1.0000
  S   S24       1.0  0.04071  0.34751  0.65249  1.0000
  S   S25       1.0  0.34751  0.04071  0.95929  1.0000
  S   S26       1.0  0.65249  0.95929  0.04071  1.0000
