data_image0
_chemical_formula_structural       Pd23S25
_chemical_formula_sum              "Pd23 S25"
_cell_length_a       7.57889
_cell_length_b       7.24118
_cell_length_c       15.4611
_cell_angle_alpha    100.916
_cell_angle_beta     89.538
_cell_angle_gamma    98.756

_space_group_name_H-M_alt    "P 1"
_space_group_IT_number       1

loop_
  _space_group_symop_operation_xyz
  'x, y, z'

loop_
  _atom_site_type_symbol
  _atom_site_label
  _atom_site_symmetry_multiplicity
  _atom_site_fract_x
  _atom_site_fract_y
  _atom_site_fract_z
  _atom_site_occupancy
  Pd  Pd1       1.0  0.27466  0.95620  0.92628  1.0000
  Pd  Pd2       1.0  0.84774  0.73324  0.88325  1.0000
  Pd  Pd3       1.0  0.09496  0.94498  0.71475  1.0000
  Pd  Pd4       1.0  0.40058  0.52213  0.84167  1.0000
  Pd  Pd5       1.0  0.73329  0.13191  0.96439  1.0000
  Pd  Pd6       1.0  0.64917  0.74231  0.67671  1.0000
  Pd  Pd7       1.0  0.97265  0.33849  0.80378  1.0000
  Pd  Pd8       1.0  0.19309  0.52908  0.63338  1.0000
  Pd  Pd9       1.0  0.50372  0.12606  0.75151  1.0000
  Pd  Pd10      1.0  0.45444  0.73397  0.48831  1.0000
  Pd  Pd11      1.0  0.77971  0.31064  0.59283  1.0000
  Pd  Pd12      1.0  0.69749  0.93542  0.32513  1.0000
  Pd  Pd13      1.0  0.99541  0.55733  0.44898  1.0000
  Pd  Pd14      1.0  0.31824  0.12183  0.56995  1.0000
  Pd  Pd15      1.0  0.57599  0.33630  0.40091  1.0000
  Pd  Pd16      1.0  0.24861  0.73847  0.27983  1.0000
  Pd  Pd17      1.0  0.80353  0.53313  0.23679  1.0000
  Pd  Pd18      1.0  0.11719  0.12557  0.36111  1.0000
  Pd  Pd19      1.0  0.48813  0.93451  0.11800  1.0000
  Pd  Pd20      1.0  0.05487  0.70372  0.07045  1.0000
  Pd  Pd21      1.0  0.36577  0.34330  0.19404  1.0000
  Pd  Pd22      1.0  0.93119  0.13877  0.15627  1.0000
  Pd  Pd23      1.0  0.59747  0.52115  0.04693  1.0000
  S   S1        1.0  0.55586  0.78875  0.95681  1.0000
  S   S2        1.0  0.12446  0.60935  0.91593  1.0000
  S   S3        1.0  0.36407  0.79859  0.76313  1.0000
  S   S4        1.0  0.68322  0.39468  0.88029  1.0000
  S   S5        1.0  0.99430  0.98988  0.00272  1.0000
  S   S6        1.0  0.91589  0.60896  0.71926  1.0000
  S   S7        1.0  0.24065  0.19532  0.83915  1.0000
  S   S8        1.0  0.16439  0.79265  0.55967  1.0000
  S   S9        1.0  0.48731  0.40602  0.68044  1.0000
  S   S10       1.0  0.80294  0.00536  0.80045  1.0000
  S   S11       1.0  0.04284  0.21147  0.64296  1.0000
  S   S12       1.0  0.71338  0.58969  0.52203  1.0000
  S   S13       1.0  0.96380  0.78938  0.35404  1.0000
  S   S14       1.0  0.60001  0.00577  0.60039  1.0000
  S   S15       1.0  0.27464  0.39021  0.47677  1.0000
  S   S16       1.0  0.84360  0.20555  0.43639  1.0000
  S   S17       1.0  0.51988  0.60454  0.32315  1.0000
  S   S18       1.0  0.76336  0.80699  0.15967  1.0000
  S   S19       1.0  0.08389  0.39690  0.27737  1.0000
  S   S20       1.0  0.39948  0.99836  0.40071  1.0000
  S   S21       1.0  0.63567  0.20414  0.24317  1.0000
  S   S22       1.0  0.32271  0.61342  0.12286  1.0000
  S   S23       1.0  0.87566  0.40224  0.08044  1.0000
  S   S24       1.0  0.19971  0.00782  0.19775  1.0000
  S   S25       1.0  0.44368  0.19212  0.03921  1.0000
