data_image0
_chemical_formula_structural       Pd4S16
_chemical_formula_sum              "Pd4 S16"
_cell_length_a       6.04415
_cell_length_b       6.04415
_cell_length_c       12.3793
_cell_angle_alpha    86.2917
_cell_angle_beta     86.2917
_cell_angle_gamma    109.716

_space_group_name_H-M_alt    "P 1"
_space_group_IT_number       1

loop_
  _space_group_symop_operation_xyz
  'x, y, z'

loop_
  _atom_site_type_symbol
  _atom_site_label
  _atom_site_symmetry_multiplicity
  _atom_site_fract_x
  _atom_site_fract_y
  _atom_site_fract_z
  _atom_site_occupancy
  Pd  Pd1       1.0  0.00000  0.50000  0.00000  1.0000
  Pd  Pd2       1.0  0.93338  0.06662  0.25000  1.0000
  Pd  Pd3       1.0  0.50000  0.00000  0.50000  1.0000
  Pd  Pd4       1.0  0.06662  0.93338  0.75000  1.0000
  S   S1        1.0  0.96452  0.48653  0.80262  1.0000
  S   S2        1.0  0.80077  0.63875  0.26278  1.0000
  S   S3        1.0  0.63083  0.44219  0.49088  1.0000
  S   S4        1.0  0.93371  0.10361  0.45586  1.0000
  S   S5        1.0  0.89639  0.06629  0.04414  1.0000
  S   S6        1.0  0.55781  0.36917  0.00912  1.0000
  S   S7        1.0  0.51347  0.03548  0.69738  1.0000
  S   S8        1.0  0.36125  0.19923  0.23722  1.0000
  S   S9        1.0  0.63875  0.80077  0.76278  1.0000
  S   S10       1.0  0.48653  0.96452  0.30262  1.0000
  S   S11       1.0  0.44219  0.63083  0.99088  1.0000
  S   S12       1.0  0.10361  0.93371  0.95586  1.0000
  S   S13       1.0  0.06629  0.89639  0.54414  1.0000
  S   S14       1.0  0.36917  0.55781  0.50912  1.0000
  S   S15       1.0  0.19923  0.36125  0.73722  1.0000
  S   S16       1.0  0.03548  0.51347  0.19738  1.0000
