data_image0
_chemical_formula_structural       Pd2S4
_chemical_formula_sum              "Pd2 S4"
_cell_length_a       4.29975
_cell_length_b       3.1716
_cell_length_c       9.91215
_cell_angle_alpha    89.6089
_cell_angle_beta     90
_cell_angle_gamma    90

_space_group_name_H-M_alt    "P 1"
_space_group_IT_number       1

loop_
  _space_group_symop_operation_xyz
  'x, y, z'

loop_
  _atom_site_type_symbol
  _atom_site_label
  _atom_site_symmetry_multiplicity
  _atom_site_fract_x
  _atom_site_fract_y
  _atom_site_fract_z
  _atom_site_occupancy
  Pd  Pd1       1.0  0.50000  0.00000  0.00000  1.0000
  Pd  Pd2       1.0  0.00000  0.50000  0.50000  1.0000
  S   S1        1.0  0.50000  0.49707  0.39622  1.0000
  S   S2        1.0  0.50000  0.50293  0.60378  1.0000
  S   S3        1.0  0.00000  0.00802  0.89614  1.0000
  S   S4        1.0  0.00000  0.99198  0.10386  1.0000
