data_image0
_chemical_formula_structural       PdS6
_chemical_formula_sum              "Pd1 S6"
_cell_length_a       6.41221
_cell_length_b       6.41221
_cell_length_c       3.90805
_cell_angle_alpha    90
_cell_angle_beta     90
_cell_angle_gamma    120

_space_group_name_H-M_alt    "P 1"
_space_group_IT_number       1

loop_
  _space_group_symop_operation_xyz
  'x, y, z'

loop_
  _atom_site_type_symbol
  _atom_site_label
  _atom_site_symmetry_multiplicity
  _atom_site_fract_x
  _atom_site_fract_y
  _atom_site_fract_z
  _atom_site_occupancy
  Pd  Pd1       1.0  0.00000  0.00000  0.50000  1.0000
  S   S1        1.0  0.40252  0.40252  0.30218  1.0000
  S   S2        1.0  0.00000  0.59748  0.30218  1.0000
  S   S3        1.0  0.59748  0.00000  0.30218  1.0000
  S   S4        1.0  1.00000  0.40252  0.69782  1.0000
  S   S5        1.0  0.40252  1.00000  0.69782  1.0000
  S   S6        1.0  0.59748  0.59748  0.69782  1.0000
