data_image0
_chemical_formula_structural       Pd4S20
_chemical_formula_sum              "Pd4 S20"
_cell_length_a       15.6096
_cell_length_b       14.4934
_cell_length_c       16.6607
_cell_angle_alpha    106.114
_cell_angle_beta     101.481
_cell_angle_gamma    99.005

_space_group_name_H-M_alt    "P 1"
_space_group_IT_number       1

loop_
  _space_group_symop_operation_xyz
  'x, y, z'

loop_
  _atom_site_type_symbol
  _atom_site_label
  _atom_site_symmetry_multiplicity
  _atom_site_fract_x
  _atom_site_fract_y
  _atom_site_fract_z
  _atom_site_occupancy
  Pd  Pd1       1.0  0.61998  0.86176  0.16021  1.0000
  Pd  Pd2       1.0  0.38002  0.13824  0.83979  1.0000
  Pd  Pd3       1.0  0.58965  0.93074  0.32811  1.0000
  Pd  Pd4       1.0  0.41035  0.06926  0.67189  1.0000
  S   S1        1.0  0.72942  0.02543  0.34935  1.0000
  S   S2        1.0  0.27058  0.97457  0.65065  1.0000
  S   S3        1.0  0.74969  0.97180  0.23272  1.0000
  S   S4        1.0  0.25031  0.02820  0.76728  1.0000
  S   S5        1.0  0.62552  0.72621  0.20343  1.0000
  S   S6        1.0  0.37448  0.27379  0.79657  1.0000
  S   S7        1.0  0.59498  0.77381  0.31666  1.0000
  S   S8        1.0  0.40502  0.22619  0.68334  1.0000
  S   S9        1.0  0.80025  0.88958  0.48775  1.0000
  S   S10       1.0  0.19975  0.11042  0.51225  1.0000
  S   S11       1.0  0.94813  0.92186  0.34189  1.0000
  S   S12       1.0  0.05187  0.07814  0.65811  1.0000
  S   S13       1.0  0.85452  0.87138  0.23489  1.0000
  S   S14       1.0  0.14548  0.12862  0.76511  1.0000
  S   S15       1.0  0.83466  0.69731  0.34290  1.0000
  S   S16       1.0  0.16534  0.30269  0.65710  1.0000
  S   S17       1.0  0.70603  0.77225  0.43524  1.0000
  S   S18       1.0  0.29397  0.22775  0.56476  1.0000
  S   S19       1.0  0.91404  0.81488  0.42041  1.0000
  S   S20       1.0  0.08596  0.18512  0.57959  1.0000
