data_image0
_chemical_formula_structural       S2Pd2
_chemical_formula_sum              "S2 Pd2"
_cell_length_a       4.46414
_cell_length_b       4.46414
_cell_length_c       5.00683
_cell_angle_alpha    90
_cell_angle_beta     90
_cell_angle_gamma    89.9493

_space_group_name_H-M_alt    "P 1"
_space_group_IT_number       1

loop_
  _space_group_symop_operation_xyz
  'x, y, z'

loop_
  _atom_site_type_symbol
  _atom_site_label
  _atom_site_symmetry_multiplicity
  _atom_site_fract_x
  _atom_site_fract_y
  _atom_site_fract_z
  _atom_site_occupancy
  S   S1        1.0  0.50600  0.49204  0.75000  1.0000
  S   S2        1.0  0.49204  0.50600  0.25000  1.0000
  Pd  Pd1       1.0  0.48573  0.00600  0.25000  1.0000
  Pd  Pd2       1.0  0.00600  0.48573  0.75000  1.0000
