data_image0
_chemical_formula_structural       S4Pd4
_chemical_formula_sum              "S4 Pd4"
_cell_length_a       8.58588
_cell_length_b       8.58588
_cell_length_c       5.61485
_cell_angle_alpha    90
_cell_angle_beta     90
_cell_angle_gamma    158.24

_space_group_name_H-M_alt    "P 1"
_space_group_IT_number       1

loop_
  _space_group_symop_operation_xyz
  'x, y, z'

loop_
  _atom_site_type_symbol
  _atom_site_label
  _atom_site_symmetry_multiplicity
  _atom_site_fract_x
  _atom_site_fract_y
  _atom_site_fract_z
  _atom_site_occupancy
  S   S1        1.0  0.93824  0.06176  0.25000  1.0000
  S   S2        1.0  0.80799  0.19201  0.75000  1.0000
  S   S3        1.0  0.06176  0.93824  0.75000  1.0000
  S   S4        1.0  0.19201  0.80799  0.25000  1.0000
  Pd  Pd1       1.0  0.37267  0.62733  0.49949  1.0000
  Pd  Pd2       1.0  0.37267  0.62733  0.00051  1.0000
  Pd  Pd3       1.0  0.62733  0.37267  0.99949  1.0000
  Pd  Pd4       1.0  0.62733  0.37267  0.50051  1.0000
