data_image0
_chemical_formula_structural       Pd3S18
_chemical_formula_sum              "Pd3 S18"
_cell_length_a       12.0429
_cell_length_b       12.0429
_cell_length_c       4.98254
_cell_angle_alpha    90
_cell_angle_beta     90
_cell_angle_gamma    120

_space_group_name_H-M_alt    "P 1"
_space_group_IT_number       1

loop_
  _space_group_symop_operation_xyz
  'x, y, z'

loop_
  _atom_site_type_symbol
  _atom_site_label
  _atom_site_symmetry_multiplicity
  _atom_site_fract_x
  _atom_site_fract_y
  _atom_site_fract_z
  _atom_site_occupancy
  Pd  Pd1       1.0  0.00000  0.00000  0.00000  1.0000
  Pd  Pd2       1.0  0.33333  0.66667  0.44319  1.0000
  Pd  Pd3       1.0  0.66667  0.33333  0.55681  1.0000
  S   S1        1.0  0.08828  0.91172  0.60131  1.0000
  S   S2        1.0  0.82344  0.91172  0.60131  1.0000
  S   S3        1.0  0.08828  0.17656  0.60131  1.0000
  S   S4        1.0  0.91172  0.08828  0.39869  1.0000
  S   S5        1.0  0.17656  0.08828  0.39869  1.0000
  S   S6        1.0  0.91172  0.82344  0.39869  1.0000
  S   S7        1.0  0.24550  0.75450  0.04317  1.0000
  S   S8        1.0  0.50900  0.75450  0.04317  1.0000
  S   S9        1.0  0.24550  0.49100  0.04317  1.0000
  S   S10       1.0  0.75450  0.24550  0.95683  1.0000
  S   S11       1.0  0.49100  0.24550  0.95683  1.0000
  S   S12       1.0  0.75450  0.50900  0.95683  1.0000
  S   S13       1.0  0.42100  0.57900  0.83858  1.0000
  S   S14       1.0  0.15800  0.57900  0.83858  1.0000
  S   S15       1.0  0.42100  0.84200  0.83858  1.0000
  S   S16       1.0  0.57900  0.42100  0.16142  1.0000
  S   S17       1.0  0.84200  0.42100  0.16142  1.0000
  S   S18       1.0  0.57900  0.15800  0.16142  1.0000
