data_image0
_chemical_formula_structural       S5Pd3
_chemical_formula_sum              "S5 Pd3"
_cell_length_a       6.16861
_cell_length_b       6.16861
_cell_length_c       6.16861
_cell_angle_alpha    99.0451
_cell_angle_beta     99.0451
_cell_angle_gamma    99.0451

_space_group_name_H-M_alt    "P 1"
_space_group_IT_number       1

loop_
  _space_group_symop_operation_xyz
  'x, y, z'

loop_
  _atom_site_type_symbol
  _atom_site_label
  _atom_site_symmetry_multiplicity
  _atom_site_fract_x
  _atom_site_fract_y
  _atom_site_fract_z
  _atom_site_occupancy
  S   S1        1.0  0.29860  0.29860  0.29860  1.0000
  S   S2        1.0  0.70410  0.78750  0.38462  1.0000
  S   S3        1.0  0.78750  0.38462  0.70410  1.0000
  S   S4        1.0  0.38462  0.70410  0.78750  1.0000
  S   S5        1.0  0.70652  0.70652  0.70652  1.0000
  Pd  Pd1       1.0  0.12141  0.42190  0.57535  1.0000
  Pd  Pd2       1.0  0.42190  0.57535  0.12141  1.0000
  Pd  Pd3       1.0  0.57535  0.12141  0.42190  1.0000
