data_image0
_chemical_formula_structural       Pd2S4
_chemical_formula_sum              "Pd2 S4"
_cell_length_a       11.9217
_cell_length_b       11.9217
_cell_length_c       11.9217
_cell_angle_alpha    163.68
_cell_angle_beta     165.032
_cell_angle_gamma    22.2138

_space_group_name_H-M_alt    "P 1"
_space_group_IT_number       1

loop_
  _space_group_symop_operation_xyz
  'x, y, z'

loop_
  _atom_site_type_symbol
  _atom_site_label
  _atom_site_symmetry_multiplicity
  _atom_site_fract_x
  _atom_site_fract_y
  _atom_site_fract_z
  _atom_site_occupancy
  Pd  Pd1       1.0  0.60344  0.35344  0.25000  1.0000
  Pd  Pd2       1.0  0.39656  0.64656  0.75000  1.0000
  S   S1        1.0  0.07229  0.82229  0.25000  1.0000
  S   S2        1.0  0.92771  0.17771  0.75000  1.0000
  S   S3        1.0  0.21877  0.96877  0.25000  1.0000
  S   S4        1.0  0.78123  0.03123  0.75000  1.0000
