data_image0
_chemical_formula_structural       S3Pd2
_chemical_formula_sum              "S3 Pd2"
_cell_length_a       7.36767
_cell_length_b       7.36767
_cell_length_c       7.36767
_cell_angle_alpha    31.0183
_cell_angle_beta     31.0183
_cell_angle_gamma    31.0183

_space_group_name_H-M_alt    "P 1"
_space_group_IT_number       1

loop_
  _space_group_symop_operation_xyz
  'x, y, z'

loop_
  _atom_site_type_symbol
  _atom_site_label
  _atom_site_symmetry_multiplicity
  _atom_site_fract_x
  _atom_site_fract_y
  _atom_site_fract_z
  _atom_site_occupancy
  S   S1        1.0  0.14008  0.14008  0.14008  1.0000
  S   S2        1.0  0.68102  0.68102  0.68102  1.0000
  S   S3        1.0  0.91223  0.91223  0.91223  1.0000
  Pd  Pd1       1.0  0.79194  0.79194  0.79194  1.0000
  Pd  Pd2       1.0  0.29663  0.29663  0.29663  1.0000
