data_image0
_chemical_formula_structural       S20Pd4
_chemical_formula_sum              "S20 Pd4"
_cell_length_a       8.87878
_cell_length_b       8.87878
_cell_length_c       18.713
_cell_angle_alpha    72.2768
_cell_angle_beta     72.2768
_cell_angle_gamma    115.206

_space_group_name_H-M_alt    "P 1"
_space_group_IT_number       1

loop_
  _space_group_symop_operation_xyz
  'x, y, z'

loop_
  _atom_site_type_symbol
  _atom_site_label
  _atom_site_symmetry_multiplicity
  _atom_site_fract_x
  _atom_site_fract_y
  _atom_site_fract_z
  _atom_site_occupancy
  S   S1        1.0  0.63159  0.60596  0.73622  1.0000
  S   S2        1.0  0.39404  0.36841  0.76378  1.0000
  S   S3        1.0  0.36841  0.39404  0.26378  1.0000
  S   S4        1.0  0.60596  0.63159  0.23622  1.0000
  S   S5        1.0  0.09070  0.52165  0.73628  1.0000
  S   S6        1.0  0.47835  0.90930  0.76372  1.0000
  S   S7        1.0  0.90930  0.47835  0.26372  1.0000
  S   S8        1.0  0.52165  0.09070  0.23628  1.0000
  S   S9        1.0  0.07935  0.46583  0.56415  1.0000
  S   S10       1.0  0.53417  0.92065  0.93585  1.0000
  S   S11       1.0  0.92065  0.53417  0.43585  1.0000
  S   S12       1.0  0.46583  0.07935  0.06415  1.0000
  S   S13       1.0  0.89008  0.51889  0.57825  1.0000
  S   S14       1.0  0.48111  0.10992  0.92175  1.0000
  S   S15       1.0  0.10992  0.48111  0.42175  1.0000
  S   S16       1.0  0.51889  0.89008  0.07825  1.0000
  S   S17       1.0  0.04547  0.68521  0.78126  1.0000
  S   S18       1.0  0.31479  0.95453  0.71874  1.0000
  S   S19       1.0  0.95453  0.31479  0.21874  1.0000
  S   S20       1.0  0.68521  0.04547  0.28126  1.0000
  Pd  Pd1       1.0  0.64894  0.86807  0.66592  1.0000
  Pd  Pd2       1.0  0.13193  0.35106  0.83408  1.0000
  Pd  Pd3       1.0  0.35106  0.13193  0.33408  1.0000
  Pd  Pd4       1.0  0.86807  0.64894  0.16592  1.0000
