data_image0
_chemical_formula_structural       Pd4S8
_chemical_formula_sum              "Pd4 S8"
_cell_length_a       7.11439
_cell_length_b       7.11439
_cell_length_c       7.11439
_cell_angle_alpha    59.9158
_cell_angle_beta     59.9158
_cell_angle_gamma    59.9158

_space_group_name_H-M_alt    "P 1"
_space_group_IT_number       1

loop_
  _space_group_symop_operation_xyz
  'x, y, z'

loop_
  _atom_site_type_symbol
  _atom_site_label
  _atom_site_symmetry_multiplicity
  _atom_site_fract_x
  _atom_site_fract_y
  _atom_site_fract_z
  _atom_site_occupancy
  Pd  Pd1       1.0  0.00000  0.00000  0.00000  1.0000
  Pd  Pd2       1.0  0.00000  0.50000  0.00000  1.0000
  Pd  Pd3       1.0  0.50000  0.00000  0.00000  1.0000
  Pd  Pd4       1.0  0.00000  0.00000  0.50000  1.0000
  S   S1        1.0  0.23837  0.23837  0.78443  1.0000
  S   S2        1.0  0.78443  0.23837  0.23837  1.0000
  S   S3        1.0  0.23890  0.23890  0.23890  1.0000
  S   S4        1.0  0.23837  0.78443  0.23837  1.0000
  S   S5        1.0  0.76163  0.21557  0.76163  1.0000
  S   S6        1.0  0.76110  0.76110  0.76110  1.0000
  S   S7        1.0  0.21557  0.76163  0.76163  1.0000
  S   S8        1.0  0.76163  0.76163  0.21557  1.0000
