data_image0
_chemical_formula_structural       Pd12S20
_chemical_formula_sum              "Pd12 S20"
_cell_length_a       3.64124
_cell_length_b       11.6855
_cell_length_c       14.4063
_cell_angle_alpha    90
_cell_angle_beta     90
_cell_angle_gamma    90

_space_group_name_H-M_alt    "P 1"
_space_group_IT_number       1

loop_
  _space_group_symop_operation_xyz
  'x, y, z'

loop_
  _atom_site_type_symbol
  _atom_site_label
  _atom_site_symmetry_multiplicity
  _atom_site_fract_x
  _atom_site_fract_y
  _atom_site_fract_z
  _atom_site_occupancy
  Pd  Pd1       1.0  0.25000  0.06958  0.60885  1.0000
  Pd  Pd2       1.0  0.25000  0.43042  0.10885  1.0000
  Pd  Pd3       1.0  0.75000  0.93042  0.39115  1.0000
  Pd  Pd4       1.0  0.75000  0.56958  0.89115  1.0000
  Pd  Pd5       1.0  0.25000  0.91690  0.89120  1.0000
  Pd  Pd6       1.0  0.25000  0.58310  0.39120  1.0000
  Pd  Pd7       1.0  0.75000  0.08310  0.10880  1.0000
  Pd  Pd8       1.0  0.75000  0.41690  0.60880  1.0000
  Pd  Pd9       1.0  0.25000  0.29240  0.90872  1.0000
  Pd  Pd10      1.0  0.25000  0.20760  0.40872  1.0000
  Pd  Pd11      1.0  0.75000  0.70760  0.09128  1.0000
  Pd  Pd12      1.0  0.75000  0.79240  0.59128  1.0000
  S   S1        1.0  0.25000  0.89590  0.51354  1.0000
  S   S2        1.0  0.25000  0.60410  0.01354  1.0000
  S   S3        1.0  0.75000  0.10410  0.48646  1.0000
  S   S4        1.0  0.75000  0.39590  0.98646  1.0000
  S   S5        1.0  0.25000  0.28715  0.57901  1.0000
  S   S6        1.0  0.25000  0.21285  0.07901  1.0000
  S   S7        1.0  0.75000  0.71285  0.42099  1.0000
  S   S8        1.0  0.75000  0.78715  0.92099  1.0000
  S   S9        1.0  0.25000  0.69361  0.67424  1.0000
  S   S10       1.0  0.25000  0.80639  0.17424  1.0000
  S   S11       1.0  0.75000  0.30639  0.32576  1.0000
  S   S12       1.0  0.75000  0.19361  0.82576  1.0000
  S   S13       1.0  0.25000  0.46611  0.81264  1.0000
  S   S14       1.0  0.25000  0.03389  0.31264  1.0000
  S   S15       1.0  0.75000  0.53389  0.18736  1.0000
  S   S16       1.0  0.75000  0.96611  0.68736  1.0000
  S   S17       1.0  0.25000  0.95600  0.09852  1.0000
  S   S18       1.0  0.25000  0.54400  0.59852  1.0000
  S   S19       1.0  0.75000  0.04400  0.90148  1.0000
  S   S20       1.0  0.75000  0.45600  0.40148  1.0000
