data_image0
_chemical_formula_structural       Pd2S4
_chemical_formula_sum              "Pd2 S4"
_cell_length_a       6.22602
_cell_length_b       6.22602
_cell_length_c       5.58464
_cell_angle_alpha    72.1439
_cell_angle_beta     72.1439
_cell_angle_gamma    52.1153

_space_group_name_H-M_alt    "P 1"
_space_group_IT_number       1

loop_
  _space_group_symop_operation_xyz
  'x, y, z'

loop_
  _atom_site_type_symbol
  _atom_site_label
  _atom_site_symmetry_multiplicity
  _atom_site_fract_x
  _atom_site_fract_y
  _atom_site_fract_z
  _atom_site_occupancy
  Pd  Pd1       1.0  0.50000  0.00000  0.50000  1.0000
  Pd  Pd2       1.0  0.00000  0.50000  0.00000  1.0000
  S   S1        1.0  0.16370  0.45895  0.34857  1.0000
  S   S2        1.0  0.54105  0.83630  0.15143  1.0000
  S   S3        1.0  0.83630  0.54105  0.65143  1.0000
  S   S4        1.0  0.45895  0.16370  0.84857  1.0000
