data_image0
_chemical_formula_structural       Pd10S18
_chemical_formula_sum              "Pd10 S18"
_cell_length_a       5.65227
_cell_length_b       5.65227
_cell_length_c       19.9317
_cell_angle_alpha    90
_cell_angle_beta     90
_cell_angle_gamma    100.145

_space_group_name_H-M_alt    "P 1"
_space_group_IT_number       1

loop_
  _space_group_symop_operation_xyz
  'x, y, z'

loop_
  _atom_site_type_symbol
  _atom_site_label
  _atom_site_symmetry_multiplicity
  _atom_site_fract_x
  _atom_site_fract_y
  _atom_site_fract_z
  _atom_site_occupancy
  Pd  Pd1       1.0  0.35521  0.64479  0.03264  1.0000
  Pd  Pd2       1.0  0.64479  0.35521  0.96736  1.0000
  Pd  Pd3       1.0  0.35521  0.64479  0.46736  1.0000
  Pd  Pd4       1.0  0.64479  0.35521  0.53264  1.0000
  Pd  Pd5       1.0  0.81339  0.18661  0.82767  1.0000
  Pd  Pd6       1.0  0.18661  0.81339  0.17233  1.0000
  Pd  Pd7       1.0  0.81339  0.18661  0.67233  1.0000
  Pd  Pd8       1.0  0.18661  0.81339  0.32767  1.0000
  Pd  Pd9       1.0  0.88296  0.11704  0.25000  1.0000
  Pd  Pd10      1.0  0.11704  0.88296  0.75000  1.0000
  S   S1        1.0  0.44934  0.55066  0.16920  1.0000
  S   S2        1.0  0.55066  0.44934  0.83080  1.0000
  S   S3        1.0  0.44934  0.55066  0.33080  1.0000
  S   S4        1.0  0.55066  0.44934  0.66920  1.0000
  S   S5        1.0  0.90529  0.09471  0.94567  1.0000
  S   S6        1.0  0.09471  0.90529  0.05433  1.0000
  S   S7        1.0  0.90529  0.09471  0.55433  1.0000
  S   S8        1.0  0.09471  0.90529  0.44567  1.0000
  S   S9        1.0  0.93299  0.06701  0.13459  1.0000
  S   S10       1.0  0.06701  0.93299  0.86541  1.0000
  S   S11       1.0  0.93299  0.06701  0.36541  1.0000
  S   S12       1.0  0.06701  0.93299  0.63459  1.0000
  S   S13       1.0  0.40324  0.59676  0.91421  1.0000
  S   S14       1.0  0.59676  0.40324  0.08579  1.0000
  S   S15       1.0  0.40324  0.59676  0.58579  1.0000
  S   S16       1.0  0.59676  0.40324  0.41421  1.0000
  S   S17       1.0  0.37540  0.62460  0.75000  1.0000
  S   S18       1.0  0.62460  0.37540  0.25000  1.0000
