data_image0
_chemical_formula_structural       PdS11
_chemical_formula_sum              "Pd1 S11"
_cell_length_a       12.0362
_cell_length_b       12.0362
_cell_length_c       12.0362
_cell_angle_alpha    153.684
_cell_angle_beta     153.684
_cell_angle_gamma    37.5588

_space_group_name_H-M_alt    "P 1"
_space_group_IT_number       1

loop_
  _space_group_symop_operation_xyz
  'x, y, z'

loop_
  _atom_site_type_symbol
  _atom_site_label
  _atom_site_symmetry_multiplicity
  _atom_site_fract_x
  _atom_site_fract_y
  _atom_site_fract_z
  _atom_site_occupancy
  Pd  Pd1       1.0  0.75000  0.25000  0.50000  1.0000
  S   S1        1.0  0.76621  0.76621  0.00000  1.0000
  S   S2        1.0  0.23379  0.23379  0.00000  1.0000
  S   S3        1.0  0.29818  0.29818  0.59636  1.0000
  S   S4        1.0  0.70182  0.70182  0.40364  1.0000
  S   S5        1.0  0.70182  0.29818  0.00000  1.0000
  S   S6        1.0  0.29818  0.70182  0.00000  1.0000
  S   S7        1.0  0.09781  0.82923  0.26858  1.0000
  S   S8        1.0  0.56064  0.82923  0.73142  1.0000
  S   S9        1.0  0.17077  0.43936  0.26858  1.0000
  S   S10       1.0  0.17077  0.90219  0.73142  1.0000
  S   S11       1.0  0.00000  0.00000  0.00000  1.0000
