data_image0
_chemical_formula_structural       Pd6S34
_chemical_formula_sum              "Pd6 S34"
_cell_length_a       11.4144
_cell_length_b       11.4144
_cell_length_c       11.4144
_cell_angle_alpha    60
_cell_angle_beta     60
_cell_angle_gamma    60

_space_group_name_H-M_alt    "P 1"
_space_group_IT_number       1

loop_
  _space_group_symop_operation_xyz
  'x, y, z'

loop_
  _atom_site_type_symbol
  _atom_site_label
  _atom_site_symmetry_multiplicity
  _atom_site_fract_x
  _atom_site_fract_y
  _atom_site_fract_z
  _atom_site_occupancy
  Pd  Pd1       1.0  0.25000  0.25000  0.25000  1.0000
  Pd  Pd2       1.0  0.00000  0.00000  0.00000  1.0000
  Pd  Pd3       1.0  0.12500  0.62500  0.62500  1.0000
  Pd  Pd4       1.0  0.62500  0.12500  0.62500  1.0000
  Pd  Pd5       1.0  0.62500  0.62500  0.12500  1.0000
  Pd  Pd6       1.0  0.62500  0.62500  0.62500  1.0000
  S   S1        1.0  0.50000  0.50000  0.50000  1.0000
  S   S2        1.0  0.75000  0.75000  0.75000  1.0000
  S   S3        1.0  0.71348  0.42884  0.42884  1.0000
  S   S4        1.0  0.42884  0.71348  0.42884  1.0000
  S   S5        1.0  0.42884  0.42884  0.71348  1.0000
  S   S6        1.0  0.42884  0.42884  0.42884  1.0000
  S   S7        1.0  0.53652  0.82116  0.82116  1.0000
  S   S8        1.0  0.82116  0.53652  0.82116  1.0000
  S   S9        1.0  0.82116  0.82116  0.53652  1.0000
  S   S10       1.0  0.82116  0.82116  0.82116  1.0000
  S   S11       1.0  0.95108  0.23541  0.23541  1.0000
  S   S12       1.0  0.23541  0.95108  0.57811  1.0000
  S   S13       1.0  0.23541  0.57811  0.95108  1.0000
  S   S14       1.0  0.57811  0.23541  0.23541  1.0000
  S   S15       1.0  0.23541  0.23541  0.95108  1.0000
  S   S16       1.0  0.95108  0.57811  0.23541  1.0000
  S   S17       1.0  0.57811  0.95108  0.23541  1.0000
  S   S18       1.0  0.23541  0.23541  0.57811  1.0000
  S   S19       1.0  0.23541  0.95108  0.23541  1.0000
  S   S20       1.0  0.57811  0.23541  0.95108  1.0000
  S   S21       1.0  0.95108  0.23541  0.57811  1.0000
  S   S22       1.0  0.23541  0.57811  0.23541  1.0000
  S   S23       1.0  0.29892  0.01459  0.01459  1.0000
  S   S24       1.0  0.01459  0.29892  0.67189  1.0000
  S   S25       1.0  0.01459  0.67189  0.29892  1.0000
  S   S26       1.0  0.67189  0.01459  0.01459  1.0000
  S   S27       1.0  0.01459  0.01459  0.29892  1.0000
  S   S28       1.0  0.29892  0.67189  0.01459  1.0000
  S   S29       1.0  0.67189  0.29892  0.01459  1.0000
  S   S30       1.0  0.01459  0.01459  0.67189  1.0000
  S   S31       1.0  0.01459  0.29892  0.01459  1.0000
  S   S32       1.0  0.67189  0.01459  0.29892  1.0000
  S   S33       1.0  0.29892  0.01459  0.67189  1.0000
  S   S34       1.0  0.01459  0.67189  0.01459  1.0000
