data_image0
_chemical_formula_structural       Pd5S34
_chemical_formula_sum              "Pd5 S34"
_cell_length_a       13.4813
_cell_length_b       13.4813
_cell_length_c       13.4813
_cell_angle_alpha    49.3892
_cell_angle_beta     49.3892
_cell_angle_gamma    49.3892

_space_group_name_H-M_alt    "P 1"
_space_group_IT_number       1

loop_
  _space_group_symop_operation_xyz
  'x, y, z'

loop_
  _atom_site_type_symbol
  _atom_site_label
  _atom_site_symmetry_multiplicity
  _atom_site_fract_x
  _atom_site_fract_y
  _atom_site_fract_z
  _atom_site_occupancy
  Pd  Pd1       1.0  0.28596  0.28596  0.28596  1.0000
  Pd  Pd2       1.0  0.71404  0.71404  0.71404  1.0000
  Pd  Pd3       1.0  0.50000  0.00000  0.00000  1.0000
  Pd  Pd4       1.0  0.00000  0.00000  0.50000  1.0000
  Pd  Pd5       1.0  0.00000  0.50000  0.00000  1.0000
  S   S1        1.0  0.78380  0.78380  0.78380  1.0000
  S   S2        1.0  0.05441  0.76164  0.76164  1.0000
  S   S3        1.0  0.76164  0.76164  0.05441  1.0000
  S   S4        1.0  0.76164  0.05441  0.76164  1.0000
  S   S5        1.0  0.21620  0.21620  0.21620  1.0000
  S   S6        1.0  0.94559  0.23836  0.23836  1.0000
  S   S7        1.0  0.23836  0.23836  0.94559  1.0000
  S   S8        1.0  0.23836  0.94559  0.23836  1.0000
  S   S9        1.0  0.84189  0.84189  0.84189  1.0000
  S   S10       1.0  0.15811  0.15811  0.15811  1.0000
  S   S11       1.0  0.59707  0.96099  0.59707  1.0000
  S   S12       1.0  0.33912  0.62639  0.95006  1.0000
  S   S13       1.0  0.95006  0.62639  0.33912  1.0000
  S   S14       1.0  0.60677  0.32564  0.60677  1.0000
  S   S15       1.0  0.62639  0.95006  0.33912  1.0000
  S   S16       1.0  0.96099  0.59707  0.59707  1.0000
  S   S17       1.0  0.32564  0.60677  0.60677  1.0000
  S   S18       1.0  0.62639  0.33912  0.95006  1.0000
  S   S19       1.0  0.33912  0.95006  0.62639  1.0000
  S   S20       1.0  0.60677  0.60677  0.32564  1.0000
  S   S21       1.0  0.59707  0.59707  0.96099  1.0000
  S   S22       1.0  0.95006  0.33912  0.62639  1.0000
  S   S23       1.0  0.40293  0.03901  0.40293  1.0000
  S   S24       1.0  0.66088  0.37361  0.04994  1.0000
  S   S25       1.0  0.04994  0.37361  0.66088  1.0000
  S   S26       1.0  0.39323  0.67436  0.39323  1.0000
  S   S27       1.0  0.37361  0.04994  0.66088  1.0000
  S   S28       1.0  0.03901  0.40293  0.40293  1.0000
  S   S29       1.0  0.67436  0.39323  0.39323  1.0000
  S   S30       1.0  0.37361  0.66088  0.04994  1.0000
  S   S31       1.0  0.66088  0.04994  0.37361  1.0000
  S   S32       1.0  0.39323  0.39323  0.67436  1.0000
  S   S33       1.0  0.40293  0.40293  0.03901  1.0000
  S   S34       1.0  0.04994  0.66088  0.37361  1.0000
