data_image0
_chemical_formula_structural       Pd22S24
_chemical_formula_sum              "Pd22 S24"
_cell_length_a       5.91554
_cell_length_b       5.91554
_cell_length_c       31.6637
_cell_angle_alpha    84.3442
_cell_angle_beta     84.3442
_cell_angle_gamma    60.4801

_space_group_name_H-M_alt    "P 1"
_space_group_IT_number       1

loop_
  _space_group_symop_operation_xyz
  'x, y, z'

loop_
  _atom_site_type_symbol
  _atom_site_label
  _atom_site_symmetry_multiplicity
  _atom_site_fract_x
  _atom_site_fract_y
  _atom_site_fract_z
  _atom_site_occupancy
  Pd  Pd1       1.0  0.80863  0.30957  0.00054  1.0000
  Pd  Pd2       1.0  0.33139  0.37419  0.69119  1.0000
  Pd  Pd3       1.0  0.19137  0.69043  0.99946  1.0000
  Pd  Pd4       1.0  0.31142  0.68858  0.75000  1.0000
  Pd  Pd5       1.0  0.37419  0.33139  0.19119  1.0000
  Pd  Pd6       1.0  0.99966  0.95922  0.30919  1.0000
  Pd  Pd7       1.0  0.68858  0.31142  0.25000  1.0000
  Pd  Pd8       1.0  0.62581  0.66861  0.80881  1.0000
  Pd  Pd9       1.0  0.69043  0.19137  0.49946  1.0000
  Pd  Pd10      1.0  0.30957  0.80863  0.50054  1.0000
  Pd  Pd11      1.0  0.64707  0.02200  0.74979  1.0000
  Pd  Pd12      1.0  0.00034  0.04078  0.69081  1.0000
  Pd  Pd13      1.0  0.66861  0.62581  0.30881  1.0000
  Pd  Pd14      1.0  0.02200  0.64707  0.24979  1.0000
  Pd  Pd15      1.0  0.04078  0.00034  0.19081  1.0000
  Pd  Pd16      1.0  0.97800  0.35293  0.75021  1.0000
  Pd  Pd17      1.0  0.66615  0.70768  0.69129  1.0000
  Pd  Pd18      1.0  0.29232  0.33385  0.80871  1.0000
  Pd  Pd19      1.0  0.35293  0.97800  0.25021  1.0000
  Pd  Pd20      1.0  0.70768  0.66615  0.19129  1.0000
  Pd  Pd21      1.0  0.33385  0.29232  0.30871  1.0000
  Pd  Pd22      1.0  0.95922  0.99966  0.80919  1.0000
  S   S1        1.0  0.61240  0.32210  0.84699  1.0000
  S   S2        1.0  0.97635  0.89042  0.44980  1.0000
  S   S3        1.0  0.35709  0.43441  0.55007  1.0000
  S   S4        1.0  0.38760  0.67790  0.15301  1.0000
  S   S5        1.0  0.01238  0.72033  0.65273  1.0000
  S   S6        1.0  0.47247  0.99398  0.04879  1.0000
  S   S7        1.0  0.56559  0.64291  0.94993  1.0000
  S   S8        1.0  0.67790  0.38760  0.65301  1.0000
  S   S9        1.0  0.94722  0.65213  0.84744  1.0000
  S   S10       1.0  0.99398  0.47247  0.54879  1.0000
  S   S11       1.0  0.64291  0.56559  0.44993  1.0000
  S   S12       1.0  0.27967  0.98762  0.84727  1.0000
  S   S13       1.0  0.65213  0.94722  0.34744  1.0000
  S   S14       1.0  0.05278  0.34787  0.15256  1.0000
  S   S15       1.0  0.10958  0.02365  0.05020  1.0000
  S   S16       1.0  0.98762  0.27967  0.34727  1.0000
  S   S17       1.0  0.52753  0.00602  0.95121  1.0000
  S   S18       1.0  0.02365  0.10958  0.55020  1.0000
  S   S19       1.0  0.34787  0.05278  0.65256  1.0000
  S   S20       1.0  0.89042  0.97635  0.94980  1.0000
  S   S21       1.0  0.00602  0.52753  0.45121  1.0000
  S   S22       1.0  0.43441  0.35709  0.05007  1.0000
  S   S23       1.0  0.72033  0.01238  0.15273  1.0000
  S   S24       1.0  0.32210  0.61240  0.34699  1.0000
