data_image0
_chemical_formula_structural       Pd4S6
_chemical_formula_sum              "Pd4 S6"
_cell_length_a       6.12341
_cell_length_b       6.12341
_cell_length_c       9.16267
_cell_angle_alpha    77.1414
_cell_angle_beta     77.1414
_cell_angle_gamma    33.7468

_space_group_name_H-M_alt    "P 1"
_space_group_IT_number       1

loop_
  _space_group_symop_operation_xyz
  'x, y, z'

loop_
  _atom_site_type_symbol
  _atom_site_label
  _atom_site_symmetry_multiplicity
  _atom_site_fract_x
  _atom_site_fract_y
  _atom_site_fract_z
  _atom_site_occupancy
  Pd  Pd1       1.0  0.15973  0.15973  0.64700  1.0000
  Pd  Pd2       1.0  0.39798  0.39798  0.94364  1.0000
  Pd  Pd3       1.0  0.60202  0.60202  0.05636  1.0000
  Pd  Pd4       1.0  0.84027  0.84027  0.35300  1.0000
  S   S1        1.0  0.95869  0.95869  0.76939  1.0000
  S   S2        1.0  0.04131  0.04131  0.23061  1.0000
  S   S3        1.0  0.80786  0.80786  0.10771  1.0000
  S   S4        1.0  0.19214  0.19214  0.89229  1.0000
  S   S5        1.0  0.36026  0.36026  0.52029  1.0000
  S   S6        1.0  0.63974  0.63974  0.47971  1.0000
