data_image0
_chemical_formula_structural       S8Pd2
_chemical_formula_sum              "S8 Pd2"
_cell_length_a       4.86617
_cell_length_b       6.94009
_cell_length_c       6.85963
_cell_angle_alpha    73.287
_cell_angle_beta     90
_cell_angle_gamma    90

_space_group_name_H-M_alt    "P 1"
_space_group_IT_number       1

loop_
  _space_group_symop_operation_xyz
  'x, y, z'

loop_
  _atom_site_type_symbol
  _atom_site_label
  _atom_site_symmetry_multiplicity
  _atom_site_fract_x
  _atom_site_fract_y
  _atom_site_fract_z
  _atom_site_occupancy
  S   S1        1.0  0.15116  0.17479  0.24861  1.0000
  S   S2        1.0  0.65116  0.82521  0.25139  1.0000
  S   S3        1.0  0.84884  0.82521  0.75139  1.0000
  S   S4        1.0  0.34884  0.17479  0.74861  1.0000
  S   S5        1.0  0.66168  0.26470  0.88003  1.0000
  S   S6        1.0  0.16168  0.73530  0.61997  1.0000
  S   S7        1.0  0.33832  0.73530  0.11997  1.0000
  S   S8        1.0  0.83832  0.26470  0.38003  1.0000
  Pd  Pd1       1.0  0.50000  0.00000  0.50000  1.0000
  Pd  Pd2       1.0  0.00000  0.00000  0.00000  1.0000
