data_image0
_chemical_formula_structural       Pd2S2
_chemical_formula_sum              "Pd2 S2"
_cell_length_a       4.78174
_cell_length_b       4.78174
_cell_length_c       4.78174
_cell_angle_alpha    137.873
_cell_angle_beta     97.3249
_cell_angle_gamma    97.5181

_space_group_name_H-M_alt    "P 1"
_space_group_IT_number       1

loop_
  _space_group_symop_operation_xyz
  'x, y, z'

loop_
  _atom_site_type_symbol
  _atom_site_label
  _atom_site_symmetry_multiplicity
  _atom_site_fract_x
  _atom_site_fract_y
  _atom_site_fract_z
  _atom_site_occupancy
  Pd  Pd1       1.0  0.28302  0.28302  0.00000  1.0000
  Pd  Pd2       1.0  0.71698  0.71698  1.00000  1.0000
  S   S1        1.0  0.74845  0.00000  0.74845  1.0000
  S   S2        1.0  0.25155  0.00000  0.25155  1.0000
