data_image0
_chemical_formula_structural       Pd2S10
_chemical_formula_sum              "Pd2 S10"
_cell_length_a       8.58837
_cell_length_b       8.58837
_cell_length_c       10.6515
_cell_angle_alpha    109.624
_cell_angle_beta     109.624
_cell_angle_gamma    25.1259

_space_group_name_H-M_alt    "P 1"
_space_group_IT_number       1

loop_
  _space_group_symop_operation_xyz
  'x, y, z'

loop_
  _atom_site_type_symbol
  _atom_site_label
  _atom_site_symmetry_multiplicity
  _atom_site_fract_x
  _atom_site_fract_y
  _atom_site_fract_z
  _atom_site_occupancy
  Pd  Pd1       1.0  0.38046  0.38046  0.34658  1.0000
  Pd  Pd2       1.0  0.61954  0.61954  0.65342  1.0000
  S   S1        1.0  0.20700  0.20700  0.67638  1.0000
  S   S2        1.0  0.79300  0.79300  0.32362  1.0000
  S   S3        1.0  0.90991  0.90991  0.06332  1.0000
  S   S4        1.0  0.09009  0.09009  0.93668  1.0000
  S   S5        1.0  0.02158  0.02158  0.60516  1.0000
  S   S6        1.0  0.97842  0.97842  0.39484  1.0000
  S   S7        1.0  0.32936  0.32936  0.79636  1.0000
  S   S8        1.0  0.67064  0.67064  0.20364  1.0000
  S   S9        1.0  0.34294  0.34294  0.00625  1.0000
  S   S10       1.0  0.65706  0.65706  0.99375  1.0000
