data_image0
_chemical_formula_structural       PdS34
_chemical_formula_sum              "Pd1 S34"
_cell_length_a       11.9314
_cell_length_b       11.9314
_cell_length_c       11.9314
_cell_angle_alpha    60
_cell_angle_beta     60
_cell_angle_gamma    60

_space_group_name_H-M_alt    "P 1"
_space_group_IT_number       1

loop_
  _space_group_symop_operation_xyz
  'x, y, z'

loop_
  _atom_site_type_symbol
  _atom_site_label
  _atom_site_symmetry_multiplicity
  _atom_site_fract_x
  _atom_site_fract_y
  _atom_site_fract_z
  _atom_site_occupancy
  Pd  Pd1       1.0  0.75000  0.75000  0.75000  1.0000
  S   S1        1.0  0.00000  0.00000  0.00000  1.0000
  S   S2        1.0  0.25000  0.25000  0.25000  1.0000
  S   S3        1.0  0.46048  0.73211  0.73211  1.0000
  S   S4        1.0  0.73211  0.46048  0.07531  1.0000
  S   S5        1.0  0.73211  0.07531  0.46048  1.0000
  S   S6        1.0  0.07531  0.73211  0.73211  1.0000
  S   S7        1.0  0.73211  0.73211  0.46048  1.0000
  S   S8        1.0  0.46048  0.07531  0.73211  1.0000
  S   S9        1.0  0.07531  0.46048  0.73211  1.0000
  S   S10       1.0  0.73211  0.73211  0.07531  1.0000
  S   S11       1.0  0.73211  0.46048  0.73211  1.0000
  S   S12       1.0  0.07531  0.73211  0.46048  1.0000
  S   S13       1.0  0.46048  0.73211  0.07531  1.0000
  S   S14       1.0  0.73211  0.07531  0.73211  1.0000
  S   S15       1.0  0.79428  0.52014  0.52014  1.0000
  S   S16       1.0  0.52014  0.79428  0.16544  1.0000
  S   S17       1.0  0.52014  0.16544  0.79428  1.0000
  S   S18       1.0  0.16544  0.52014  0.52014  1.0000
  S   S19       1.0  0.52014  0.52014  0.79428  1.0000
  S   S20       1.0  0.79428  0.16544  0.52014  1.0000
  S   S21       1.0  0.16544  0.79428  0.52014  1.0000
  S   S22       1.0  0.52014  0.52014  0.16544  1.0000
  S   S23       1.0  0.52014  0.79428  0.52014  1.0000
  S   S24       1.0  0.16544  0.52014  0.79428  1.0000
  S   S25       1.0  0.79428  0.52014  0.16544  1.0000
  S   S26       1.0  0.52014  0.16544  0.52014  1.0000
  S   S27       1.0  0.20361  0.93213  0.93213  1.0000
  S   S28       1.0  0.93213  0.20361  0.93213  1.0000
  S   S29       1.0  0.93213  0.93213  0.20361  1.0000
  S   S30       1.0  0.93213  0.93213  0.93213  1.0000
  S   S31       1.0  0.04520  0.31827  0.31827  1.0000
  S   S32       1.0  0.31827  0.04520  0.31827  1.0000
  S   S33       1.0  0.31827  0.31827  0.04520  1.0000
  S   S34       1.0  0.31827  0.31827  0.31827  1.0000
