data_image0
_chemical_formula_structural       S2Pd2
_chemical_formula_sum              "S2 Pd2"
_cell_length_a       3.61391
_cell_length_b       4.07709
_cell_length_c       5.22976
_cell_angle_alpha    90
_cell_angle_beta     90
_cell_angle_gamma    90

_space_group_name_H-M_alt    "P 1"
_space_group_IT_number       1

loop_
  _space_group_symop_operation_xyz
  'x, y, z'

loop_
  _atom_site_type_symbol
  _atom_site_label
  _atom_site_symmetry_multiplicity
  _atom_site_fract_x
  _atom_site_fract_y
  _atom_site_fract_z
  _atom_site_occupancy
  S   S1        1.0  0.50000  0.18450  0.41302  1.0000
  S   S2        1.0  0.00000  0.81550  0.91302  1.0000
  Pd  Pd1       1.0  0.50000  0.67734  0.17698  1.0000
  Pd  Pd2       1.0  0.00000  0.32266  0.67698  1.0000
