data_image0
_chemical_formula_structural       PdS4
_chemical_formula_sum              "Pd1 S4"
_cell_length_a       5.3204
_cell_length_b       5.3204
_cell_length_c       5.3204
_cell_angle_alpha    124.59
_cell_angle_beta     124.59
_cell_angle_gamma    82.2184

_space_group_name_H-M_alt    "P 1"
_space_group_IT_number       1

loop_
  _space_group_symop_operation_xyz
  'x, y, z'

loop_
  _atom_site_type_symbol
  _atom_site_label
  _atom_site_symmetry_multiplicity
  _atom_site_fract_x
  _atom_site_fract_y
  _atom_site_fract_z
  _atom_site_occupancy
  Pd  Pd1       1.0  0.00000  0.00000  0.00000  1.0000
  S   S1        1.0  0.25000  0.75000  0.50000  1.0000
  S   S2        1.0  0.75000  0.25000  0.50000  1.0000
  S   S3        1.0  0.28277  0.28277  0.00000  1.0000
  S   S4        1.0  0.71723  0.71723  0.00000  1.0000
