data_image0
_chemical_formula_structural       S8Pd6
_chemical_formula_sum              "S8 Pd6"
_cell_length_a       6.29213
_cell_length_b       6.93626
_cell_length_c       7.04509
_cell_angle_alpha    106.845
_cell_angle_beta     107.303
_cell_angle_gamma    100.554

_space_group_name_H-M_alt    "P 1"
_space_group_IT_number       1

loop_
  _space_group_symop_operation_xyz
  'x, y, z'

loop_
  _atom_site_type_symbol
  _atom_site_label
  _atom_site_symmetry_multiplicity
  _atom_site_fract_x
  _atom_site_fract_y
  _atom_site_fract_z
  _atom_site_occupancy
  S   S1        1.0  0.85546  0.67149  0.59051  1.0000
  S   S2        1.0  0.02194  0.81766  0.09501  1.0000
  S   S3        1.0  0.60556  0.41315  0.56969  1.0000
  S   S4        1.0  0.08650  0.23925  0.57455  1.0000
  S   S5        1.0  0.48266  0.93717  0.52888  1.0000
  S   S6        1.0  0.81555  0.27157  0.12923  1.0000
  S   S7        1.0  0.32119  0.39983  0.05709  1.0000
  S   S8        1.0  0.50757  0.81468  0.99807  1.0000
  Pd  Pd1       1.0  0.61594  0.10979  0.31993  1.0000
  Pd  Pd2       1.0  0.10352  0.56121  0.84393  1.0000
  Pd  Pd3       1.0  0.37343  0.13902  0.78485  1.0000
  Pd  Pd4       1.0  0.69566  0.57568  0.08478  1.0000
  Pd  Pd5       1.0  0.22203  0.35005  0.33737  1.0000
  Pd  Pd6       1.0  0.79311  0.94959  0.83619  1.0000
