data_image0
_chemical_formula_structural       PdS2
_chemical_formula_sum              "Pd1 S2"
_cell_length_a       6.38307
_cell_length_b       6.38307
_cell_length_c       2.70479
_cell_angle_alpha    90
_cell_angle_beta     90
_cell_angle_gamma    149.161

_space_group_name_H-M_alt    "P 1"
_space_group_IT_number       1

loop_
  _space_group_symop_operation_xyz
  'x, y, z'

loop_
  _atom_site_type_symbol
  _atom_site_label
  _atom_site_symmetry_multiplicity
  _atom_site_fract_x
  _atom_site_fract_y
  _atom_site_fract_z
  _atom_site_occupancy
  Pd  Pd1       1.0  0.00596  0.99404  0.00000  1.0000
  S   S1        1.0  0.37343  0.62657  0.00000  1.0000
  S   S2        1.0  0.62654  0.37346  0.50000  1.0000
