data_image0
_chemical_formula_structural       Pd6S18
_chemical_formula_sum              "Pd6 S18"
_cell_length_a       7.38164
_cell_length_b       7.38164
_cell_length_c       11.175
_cell_angle_alpha    90
_cell_angle_beta     90
_cell_angle_gamma    120

_space_group_name_H-M_alt    "P 1"
_space_group_IT_number       1

loop_
  _space_group_symop_operation_xyz
  'x, y, z'

loop_
  _atom_site_type_symbol
  _atom_site_label
  _atom_site_symmetry_multiplicity
  _atom_site_fract_x
  _atom_site_fract_y
  _atom_site_fract_z
  _atom_site_occupancy
  Pd  Pd1       1.0  0.68485  1.00000  0.25000  1.0000
  Pd  Pd2       1.0  1.00000  0.68485  0.25000  1.0000
  Pd  Pd3       1.0  0.31515  0.31515  0.25000  1.0000
  Pd  Pd4       1.0  0.68485  0.68485  0.75000  1.0000
  Pd  Pd5       1.0  0.00000  0.31515  0.75000  1.0000
  Pd  Pd6       1.0  0.31515  0.00000  0.75000  1.0000
  S   S1        1.0  0.62914  0.59388  0.15980  1.0000
  S   S2        1.0  0.40612  0.03527  0.15980  1.0000
  S   S3        1.0  0.96473  0.37086  0.15980  1.0000
  S   S4        1.0  0.33333  0.66667  0.08604  1.0000
  S   S5        1.0  0.00000  0.00000  0.25000  1.0000
  S   S6        1.0  0.66667  0.33333  0.41396  1.0000
  S   S7        1.0  0.03527  0.40612  0.34020  1.0000
  S   S8        1.0  0.37086  0.96473  0.34020  1.0000
  S   S9        1.0  0.59388  0.62914  0.34020  1.0000
  S   S10       1.0  0.62914  0.03527  0.65980  1.0000
  S   S11       1.0  0.40612  0.37086  0.65980  1.0000
  S   S12       1.0  0.96473  0.59388  0.65980  1.0000
  S   S13       1.0  0.33333  0.66667  0.58604  1.0000
  S   S14       1.0  0.00000  0.00000  0.75000  1.0000
  S   S15       1.0  0.66667  0.33333  0.91396  1.0000
  S   S16       1.0  0.03527  0.62914  0.84020  1.0000
  S   S17       1.0  0.59388  0.96473  0.84020  1.0000
  S   S18       1.0  0.37086  0.40612  0.84020  1.0000
