data_image0
_chemical_formula_structural       S8Pd8
_chemical_formula_sum              "S8 Pd8"
_cell_length_a       7.61947
_cell_length_b       7.61947
_cell_length_c       7.61947
_cell_angle_alpha    124.346
_cell_angle_beta     124.346
_cell_angle_gamma    82.6235

_space_group_name_H-M_alt    "P 1"
_space_group_IT_number       1

loop_
  _space_group_symop_operation_xyz
  'x, y, z'

loop_
  _atom_site_type_symbol
  _atom_site_label
  _atom_site_symmetry_multiplicity
  _atom_site_fract_x
  _atom_site_fract_y
  _atom_site_fract_z
  _atom_site_occupancy
  S   S1        1.0  0.12500  0.98801  0.36301  1.0000
  S   S2        1.0  0.73801  0.87500  0.36301  1.0000
  S   S3        1.0  0.51199  0.37500  0.63699  1.0000
  S   S4        1.0  0.62500  0.76199  0.63699  1.0000
  S   S5        1.0  0.62500  0.26199  0.13699  1.0000
  S   S6        1.0  0.01199  0.37500  0.13699  1.0000
  S   S7        1.0  0.23801  0.87500  0.86301  1.0000
  S   S8        1.0  0.12500  0.48801  0.86301  1.0000
  Pd  Pd1       1.0  0.63278  0.13278  0.76557  1.0000
  Pd  Pd2       1.0  0.88278  0.61722  0.00000  1.0000
  Pd  Pd3       1.0  0.61722  0.88278  0.00000  1.0000
  Pd  Pd4       1.0  0.36722  0.86722  0.23443  1.0000
  Pd  Pd5       1.0  0.11722  0.11722  0.73443  1.0000
  Pd  Pd6       1.0  0.86722  0.63278  0.50000  1.0000
  Pd  Pd7       1.0  0.13278  0.36722  0.50000  1.0000
  Pd  Pd8       1.0  0.38278  0.38278  0.26557  1.0000
