data_image0
_chemical_formula_structural       PdS3
_chemical_formula_sum              "Pd1 S3"
_cell_length_a       3.7113
_cell_length_b       3.7113
_cell_length_c       7.10496
_cell_angle_alpha    76.4734
_cell_angle_beta     76.4734
_cell_angle_gamma    59.2442

_space_group_name_H-M_alt    "P 1"
_space_group_IT_number       1

loop_
  _space_group_symop_operation_xyz
  'x, y, z'

loop_
  _atom_site_type_symbol
  _atom_site_label
  _atom_site_symmetry_multiplicity
  _atom_site_fract_x
  _atom_site_fract_y
  _atom_site_fract_z
  _atom_site_occupancy
  Pd  Pd1       1.0  0.00000  0.00000  0.00000  1.0000
  S   S1        1.0  0.61530  0.61530  0.17883  1.0000
  S   S2        1.0  0.38470  0.38470  0.82117  1.0000
  S   S3        1.0  0.50000  0.50000  0.50000  1.0000
