data_image0
_chemical_formula_structural       Pd2S10
_chemical_formula_sum              "Pd2 S10"
_cell_length_a       12.5862
_cell_length_b       5.71447
_cell_length_c       4.84955
_cell_angle_alpha    76.226
_cell_angle_beta     90
_cell_angle_gamma    90

_space_group_name_H-M_alt    "P 1"
_space_group_IT_number       1

loop_
  _space_group_symop_operation_xyz
  'x, y, z'

loop_
  _atom_site_type_symbol
  _atom_site_label
  _atom_site_symmetry_multiplicity
  _atom_site_fract_x
  _atom_site_fract_y
  _atom_site_fract_z
  _atom_site_occupancy
  Pd  Pd1       1.0  0.25000  0.18156  0.36166  1.0000
  Pd  Pd2       1.0  0.75000  0.81844  0.63834  1.0000
  S   S1        1.0  0.25000  0.58303  0.82613  1.0000
  S   S2        1.0  0.75000  0.41697  0.17387  1.0000
  S   S3        1.0  0.37006  0.32487  0.97958  1.0000
  S   S4        1.0  0.87006  0.67513  0.02042  1.0000
  S   S5        1.0  0.62994  0.67513  0.02042  1.0000
  S   S6        1.0  0.12994  0.32487  0.97958  1.0000
  S   S7        1.0  0.39375  0.13241  0.67944  1.0000
  S   S8        1.0  0.89375  0.86759  0.32056  1.0000
  S   S9        1.0  0.60625  0.86759  0.32056  1.0000
  S   S10       1.0  0.10625  0.13241  0.67944  1.0000
