data_image0
_chemical_formula_structural       Pd18S22
_chemical_formula_sum              "Pd18 S22"
_cell_length_a       9.60911
_cell_length_b       9.60911
_cell_length_c       12.0503
_cell_angle_alpha    90
_cell_angle_beta     90
_cell_angle_gamma    120

_space_group_name_H-M_alt    "P 1"
_space_group_IT_number       1

loop_
  _space_group_symop_operation_xyz
  'x, y, z'

loop_
  _atom_site_type_symbol
  _atom_site_label
  _atom_site_symmetry_multiplicity
  _atom_site_fract_x
  _atom_site_fract_y
  _atom_site_fract_z
  _atom_site_occupancy
  Pd  Pd1       1.0  0.86286  0.36035  0.44441  1.0000
  Pd  Pd2       1.0  0.67889  0.14597  0.25000  1.0000
  Pd  Pd3       1.0  0.63965  0.50251  0.05559  1.0000
  Pd  Pd4       1.0  0.49749  0.13714  0.44441  1.0000
  Pd  Pd5       1.0  0.50251  0.86286  0.55559  1.0000
  Pd  Pd6       1.0  0.63965  0.50251  0.44441  1.0000
  Pd  Pd7       1.0  0.36035  0.49749  0.94441  1.0000
  Pd  Pd8       1.0  0.85403  0.53292  0.25000  1.0000
  Pd  Pd9       1.0  0.13714  0.63965  0.94441  1.0000
  Pd  Pd10      1.0  0.13714  0.63965  0.55559  1.0000
  Pd  Pd11      1.0  0.14597  0.46708  0.75000  1.0000
  Pd  Pd12      1.0  0.86286  0.36035  0.05559  1.0000
  Pd  Pd13      1.0  0.46708  0.32111  0.25000  1.0000
  Pd  Pd14      1.0  0.36035  0.49749  0.55559  1.0000
  Pd  Pd15      1.0  0.50251  0.86286  0.94441  1.0000
  Pd  Pd16      1.0  0.53292  0.67889  0.75000  1.0000
  Pd  Pd17      1.0  0.32111  0.85403  0.75000  1.0000
  Pd  Pd18      1.0  0.49749  0.13714  0.05559  1.0000
  S   S1        1.0  0.66667  0.33333  0.57523  1.0000
  S   S2        1.0  0.33333  0.66667  0.42477  1.0000
  S   S3        1.0  0.71166  0.07188  0.43020  1.0000
  S   S4        1.0  0.60486  0.96053  0.75000  1.0000
  S   S5        1.0  0.63978  0.71166  0.93020  1.0000
  S   S6        1.0  0.28834  0.92812  0.93020  1.0000
  S   S7        1.0  0.71166  0.07188  0.06980  1.0000
  S   S8        1.0  0.07188  0.36022  0.56980  1.0000
  S   S9        1.0  0.07188  0.36022  0.93020  1.0000
  S   S10       1.0  0.64433  0.60486  0.25000  1.0000
  S   S11       1.0  0.35567  0.39514  0.75000  1.0000
  S   S12       1.0  0.39514  0.03947  0.25000  1.0000
  S   S13       1.0  0.36022  0.28834  0.06980  1.0000
  S   S14       1.0  0.36022  0.28834  0.43020  1.0000
  S   S15       1.0  0.28834  0.92812  0.56980  1.0000
  S   S16       1.0  0.96053  0.35567  0.25000  1.0000
  S   S17       1.0  0.33333  0.66667  0.07523  1.0000
  S   S18       1.0  0.92812  0.63978  0.06980  1.0000
  S   S19       1.0  0.92812  0.63978  0.43020  1.0000
  S   S20       1.0  0.63978  0.71166  0.56980  1.0000
  S   S21       1.0  0.03947  0.64433  0.75000  1.0000
  S   S22       1.0  0.66667  0.33333  0.92477  1.0000
