data_image0
_chemical_formula_structural       Pd2S8
_chemical_formula_sum              "Pd2 S8"
_cell_length_a       4.64997
_cell_length_b       7.30985
_cell_length_c       8.52904
_cell_angle_alpha    81.0793
_cell_angle_beta     90
_cell_angle_gamma    90

_space_group_name_H-M_alt    "P 1"
_space_group_IT_number       1

loop_
  _space_group_symop_operation_xyz
  'x, y, z'

loop_
  _atom_site_type_symbol
  _atom_site_label
  _atom_site_symmetry_multiplicity
  _atom_site_fract_x
  _atom_site_fract_y
  _atom_site_fract_z
  _atom_site_occupancy
  Pd  Pd1       1.0  0.25000  0.62070  0.65991  1.0000
  Pd  Pd2       1.0  0.75000  0.37930  0.34009  1.0000
  S   S1        1.0  0.54423  0.74972  0.84062  1.0000
  S   S2        1.0  0.04423  0.25028  0.15938  1.0000
  S   S3        1.0  0.45577  0.25028  0.15938  1.0000
  S   S4        1.0  0.95577  0.74972  0.84062  1.0000
  S   S5        1.0  0.25000  0.73877  0.39392  1.0000
  S   S6        1.0  0.75000  0.26123  0.60608  1.0000
  S   S7        1.0  0.25000  0.30563  0.66373  1.0000
  S   S8        1.0  0.75000  0.69437  0.33627  1.0000
