data_image0
_chemical_formula_structural       Pd4S8
_chemical_formula_sum              "Pd4 S8"
_cell_length_a       5.50171
_cell_length_b       5.59392
_cell_length_c       8.60709
_cell_angle_alpha    90
_cell_angle_beta     90
_cell_angle_gamma    90

_space_group_name_H-M_alt    "P 1"
_space_group_IT_number       1

loop_
  _space_group_symop_operation_xyz
  'x, y, z'

loop_
  _atom_site_type_symbol
  _atom_site_label
  _atom_site_symmetry_multiplicity
  _atom_site_fract_x
  _atom_site_fract_y
  _atom_site_fract_z
  _atom_site_occupancy
  Pd  Pd1       1.0  0.50000  0.00000  0.50000  1.0000
  Pd  Pd2       1.0  0.00000  0.50000  0.50000  1.0000
  Pd  Pd3       1.0  0.50000  0.50000  0.00000  1.0000
  Pd  Pd4       1.0  0.00000  0.00000  0.00000  1.0000
  S   S1        1.0  0.60419  0.11029  0.07311  1.0000
  S   S2        1.0  0.10419  0.38971  0.92689  1.0000
  S   S3        1.0  0.39581  0.61029  0.42689  1.0000
  S   S4        1.0  0.89581  0.88971  0.57311  1.0000
  S   S5        1.0  0.10419  0.11029  0.42689  1.0000
  S   S6        1.0  0.60419  0.38971  0.57311  1.0000
  S   S7        1.0  0.89581  0.61029  0.07311  1.0000
  S   S8        1.0  0.39581  0.88971  0.92689  1.0000
