data_image0
_chemical_formula_structural       Pd4S10
_chemical_formula_sum              "Pd4 S10"
_cell_length_a       6.95432
_cell_length_b       6.95432
_cell_length_c       6.95432
_cell_angle_alpha    115.503
_cell_angle_beta     115.503
_cell_angle_gamma    97.9833

_space_group_name_H-M_alt    "P 1"
_space_group_IT_number       1

loop_
  _space_group_symop_operation_xyz
  'x, y, z'

loop_
  _atom_site_type_symbol
  _atom_site_label
  _atom_site_symmetry_multiplicity
  _atom_site_fract_x
  _atom_site_fract_y
  _atom_site_fract_z
  _atom_site_occupancy
  Pd  Pd1       1.0  0.40106  0.90106  0.50000  1.0000
  Pd  Pd2       1.0  0.65106  0.65106  0.00000  1.0000
  Pd  Pd3       1.0  0.09894  0.59894  0.50000  1.0000
  Pd  Pd4       1.0  0.34894  0.34894  0.00000  1.0000
  S   S1        1.0  0.37500  0.42165  0.54665  1.0000
  S   S2        1.0  0.87500  0.82835  0.45335  1.0000
  S   S3        1.0  0.57835  0.12500  0.95335  1.0000
  S   S4        1.0  0.17165  0.62500  0.04665  1.0000
  S   S5        1.0  0.37500  0.82835  0.95335  1.0000
  S   S6        1.0  0.87500  0.42165  0.04665  1.0000
  S   S7        1.0  0.57835  0.62500  0.45335  1.0000
  S   S8        1.0  0.17165  0.12500  0.54665  1.0000
  S   S9        1.0  0.75000  0.25000  0.50000  1.0000
  S   S10       1.0  0.00000  0.00000  0.00000  1.0000
