data_image0
_chemical_formula_structural       Pd22S24
_chemical_formula_sum              "Pd22 S24"
_cell_length_a       7.3036
_cell_length_b       7.272
_cell_length_c       17.7404
_cell_angle_alpha    97.0422
_cell_angle_beta     75.8689
_cell_angle_gamma    120.144

_space_group_name_H-M_alt    "P 1"
_space_group_IT_number       1

loop_
  _space_group_symop_operation_xyz
  'x, y, z'

loop_
  _atom_site_type_symbol
  _atom_site_label
  _atom_site_symmetry_multiplicity
  _atom_site_fract_x
  _atom_site_fract_y
  _atom_site_fract_z
  _atom_site_occupancy
  Pd  Pd1       1.0  0.22572  0.53346  0.83147  1.0000
  Pd  Pd2       1.0  0.94226  0.96654  0.33147  1.0000
  Pd  Pd3       1.0  0.81242  0.52560  0.67049  1.0000
  Pd  Pd4       1.0  0.53682  0.97440  0.17049  1.0000
  Pd  Pd5       1.0  0.69125  0.99485  0.83386  1.0000
  Pd  Pd6       1.0  0.94639  0.50515  0.33386  1.0000
  Pd  Pd7       1.0  0.81725  0.01558  0.66789  1.0000
  Pd  Pd8       1.0  0.05167  0.48442  0.16789  1.0000
  Pd  Pd9       1.0  0.30437  0.51188  0.66094  1.0000
  Pd  Pd10      1.0  0.04249  0.98812  0.16094  1.0000
  Pd  Pd11      1.0  0.70262  0.52185  0.84137  1.0000
  Pd  Pd12      1.0  0.43077  0.97815  0.34137  1.0000
  Pd  Pd13      1.0  0.35024  0.48426  0.49023  1.0000
  Pd  Pd14      1.0  0.11598  0.01574  0.99023  1.0000
  Pd  Pd15      1.0  0.39002  0.01315  0.51440  1.0000
  Pd  Pd16      1.0  0.62687  0.48685  0.01440  1.0000
  Pd  Pd17      1.0  0.87456  0.01549  0.50164  1.0000
  Pd  Pd18      1.0  0.10907  0.48451  0.00164  1.0000
  Pd  Pd19      1.0  0.87531  0.49105  0.50195  1.0000
  Pd  Pd20      1.0  0.63426  0.00895  0.00195  1.0000
  Pd  Pd21      1.0  0.23004  0.02288  0.81731  1.0000
  Pd  Pd22      1.0  0.45716  0.47712  0.31731  1.0000
  S   S1        1.0  0.75901  0.83572  0.07647  1.0000
  S   S2        1.0  0.17329  0.66428  0.57647  1.0000
  S   S3        1.0  0.99377  0.67145  0.92070  1.0000
  S   S4        1.0  0.57232  0.82855  0.42070  1.0000
  S   S5        1.0  0.43725  0.37067  0.75308  1.0000
  S   S6        1.0  0.31658  0.12933  0.25308  1.0000
  S   S7        1.0  0.17645  0.18217  0.57825  1.0000
  S   S8        1.0  0.24427  0.31783  0.07825  1.0000
  S   S9        1.0  0.57241  0.32462  0.41652  1.0000
  S   S10       1.0  0.49779  0.17538  0.91652  1.0000
  S   S11       1.0  0.68461  0.67997  0.58962  1.0000
  S   S12       1.0  0.25465  0.82003  0.08962  1.0000
  S   S13       1.0  0.06039  0.82459  0.42871  1.0000
  S   S14       1.0  0.48580  0.67541  0.92871  1.0000
  S   S15       1.0  0.74838  0.31689  0.08839  1.0000
  S   S16       1.0  0.68149  0.18311  0.58839  1.0000
  S   S17       1.0  0.00594  0.18305  0.89878  1.0000
  S   S18       1.0  0.07289  0.31695  0.39878  1.0000
  S   S19       1.0  0.82859  0.14691  0.24632  1.0000
  S   S20       1.0  0.93168  0.35309  0.74632  1.0000
  S   S21       1.0  0.91635  0.84314  0.75778  1.0000
  S   S22       1.0  0.32321  0.65686  0.25778  1.0000
  S   S23       1.0  0.83276  0.65354  0.24723  1.0000
  S   S24       1.0  0.42922  0.84646  0.74723  1.0000
