data_image0
_chemical_formula_structural       S2Pd2
_chemical_formula_sum              "S2 Pd2"
_cell_length_a       5.82032
_cell_length_b       5.82032
_cell_length_c       5.82032
_cell_angle_alpha    150.828
_cell_angle_beta     97.9758
_cell_angle_gamma    89.3176

_space_group_name_H-M_alt    "P 1"
_space_group_IT_number       1

loop_
  _space_group_symop_operation_xyz
  'x, y, z'

loop_
  _atom_site_type_symbol
  _atom_site_label
  _atom_site_symmetry_multiplicity
  _atom_site_fract_x
  _atom_site_fract_y
  _atom_site_fract_z
  _atom_site_occupancy
  S   S1        1.0  0.60739  0.85739  0.75000  1.0000
  S   S2        1.0  0.39261  0.14261  0.25000  1.0000
  Pd  Pd1       1.0  0.50000  0.00000  0.50000  1.0000
  Pd  Pd2       1.0  0.00000  0.00000  0.00000  1.0000
