data_image0
_chemical_formula_structural       Pd4S20
_chemical_formula_sum              "Pd4 S20"
_cell_length_a       12.7076
_cell_length_b       5.30166
_cell_length_c       10.6242
_cell_angle_alpha    101.68
_cell_angle_beta     90
_cell_angle_gamma    90

_space_group_name_H-M_alt    "P 1"
_space_group_IT_number       1

loop_
  _space_group_symop_operation_xyz
  'x, y, z'

loop_
  _atom_site_type_symbol
  _atom_site_label
  _atom_site_symmetry_multiplicity
  _atom_site_fract_x
  _atom_site_fract_y
  _atom_site_fract_z
  _atom_site_occupancy
  Pd  Pd1       1.0  0.25000  0.06728  0.04922  1.0000
  Pd  Pd2       1.0  0.75000  0.93272  0.95078  1.0000
  Pd  Pd3       1.0  0.25000  0.09190  0.53826  1.0000
  Pd  Pd4       1.0  0.75000  0.90810  0.46174  1.0000
  S   S1        1.0  0.63490  0.47097  0.67311  1.0000
  S   S2        1.0  0.13490  0.52903  0.32689  1.0000
  S   S3        1.0  0.36510  0.52903  0.32689  1.0000
  S   S4        1.0  0.86510  0.47097  0.67311  1.0000
  S   S5        1.0  0.61944  0.11556  0.08925  1.0000
  S   S6        1.0  0.11944  0.88444  0.91075  1.0000
  S   S7        1.0  0.38056  0.88444  0.91075  1.0000
  S   S8        1.0  0.88056  0.11556  0.08925  1.0000
  S   S9        1.0  0.63678  0.47356  0.17965  1.0000
  S   S10       1.0  0.13678  0.52644  0.82035  1.0000
  S   S11       1.0  0.36322  0.52644  0.82035  1.0000
  S   S12       1.0  0.86322  0.47356  0.17965  1.0000
  S   S13       1.0  0.25000  0.51775  0.66393  1.0000
  S   S14       1.0  0.75000  0.48225  0.33607  1.0000
  S   S15       1.0  0.62009  0.10262  0.59741  1.0000
  S   S16       1.0  0.12009  0.89738  0.40259  1.0000
  S   S17       1.0  0.37991  0.89738  0.40259  1.0000
  S   S18       1.0  0.87991  0.10262  0.59741  1.0000
  S   S19       1.0  0.25000  0.49252  0.17169  1.0000
  S   S20       1.0  0.75000  0.50748  0.82831  1.0000
