data_image0
_chemical_formula_structural       Pd3Se6
_chemical_formula_sum              "Pd3 Se6"
_cell_length_a       4.4749
_cell_length_b       4.4749
_cell_length_c       10.7322
_cell_angle_alpha    90
_cell_angle_beta     90
_cell_angle_gamma    120

_space_group_name_H-M_alt    "P 1"
_space_group_IT_number       1

loop_
  _space_group_symop_operation_xyz
  'x, y, z'

loop_
  _atom_site_type_symbol
  _atom_site_label
  _atom_site_symmetry_multiplicity
  _atom_site_fract_x
  _atom_site_fract_y
  _atom_site_fract_z
  _atom_site_occupancy
  Pd  Pd1       1.0  0.66044  0.00030  0.99983  1.0000
  Pd  Pd2       1.0  0.33985  0.33956  0.33317  1.0000
  Pd  Pd3       1.0  0.99970  0.66015  0.66650  1.0000
  Se  Se1       1.0  0.32953  0.33381  0.08156  1.0000
  Se  Se2       1.0  0.00429  0.67047  0.41489  1.0000
  Se  Se3       1.0  0.66619  0.99571  0.74822  1.0000
  Se  Se4       1.0  0.99575  0.66669  0.91864  1.0000
  Se  Se5       1.0  0.33331  0.32906  0.58531  1.0000
  Se  Se6       1.0  0.67094  0.00425  0.25198  1.0000
