data_image0
_chemical_formula_structural       S24Pd9
_chemical_formula_sum              "S24 Pd9"
_cell_length_a       8.28204
_cell_length_b       8.34736
_cell_length_c       10.3342
_cell_angle_alpha    90.1981
_cell_angle_beta     90.4874
_cell_angle_gamma    119.719

_space_group_name_H-M_alt    "P 1"
_space_group_IT_number       1

loop_
  _space_group_symop_operation_xyz
  'x, y, z'

loop_
  _atom_site_type_symbol
  _atom_site_label
  _atom_site_symmetry_multiplicity
  _atom_site_fract_x
  _atom_site_fract_y
  _atom_site_fract_z
  _atom_site_occupancy
  S   S1        1.0  0.83706  0.67444  0.23595  1.0000
  S   S2        1.0  0.38641  0.30282  0.29788  1.0000
  S   S3        1.0  0.75964  0.23366  0.37197  1.0000
  S   S4        1.0  0.20217  0.60877  0.29983  1.0000
  S   S5        1.0  0.46769  0.73955  0.36398  1.0000
  S   S6        1.0  0.89369  0.10427  0.30355  1.0000
  S   S7        1.0  0.16199  0.32280  0.56931  1.0000
  S   S8        1.0  0.73898  0.95738  0.64053  1.0000
  S   S9        1.0  0.26102  0.04262  0.35947  1.0000
  S   S10       1.0  0.83801  0.67720  0.43069  1.0000
  S   S11       1.0  0.10631  0.89573  0.69645  1.0000
  S   S12       1.0  0.53231  0.26045  0.63602  1.0000
  S   S13       1.0  0.79783  0.39123  0.70017  1.0000
  S   S14       1.0  0.24036  0.76634  0.62803  1.0000
  S   S15       1.0  0.49966  0.00136  0.90230  1.0000
  S   S16       1.0  0.06712  0.63173  0.96819  1.0000
  S   S17       1.0  0.61359  0.69718  0.70212  1.0000
  S   S18       1.0  0.16294  0.32556  0.76405  1.0000
  S   S19       1.0  0.43341  0.56370  0.03321  1.0000
  S   S20       1.0  0.86634  0.93140  0.96613  1.0000
  S   S21       1.0  0.13366  0.06860  0.03387  1.0000
  S   S22       1.0  0.56659  0.43630  0.96679  1.0000
  S   S23       1.0  0.93288  0.36827  0.03181  1.0000
  S   S24       1.0  0.50034  0.99864  0.09770  1.0000
  Pd  Pd1       1.0  0.16365  0.83332  0.16478  1.0000
  Pd  Pd2       1.0  0.00000  0.50000  0.50000  1.0000
  Pd  Pd3       1.0  0.50000  0.00000  0.50000  1.0000
  Pd  Pd4       1.0  0.83635  0.16668  0.83522  1.0000
  Pd  Pd5       1.0  0.00000  0.00000  0.50000  1.0000
  Pd  Pd6       1.0  0.33750  0.16812  0.83343  1.0000
  Pd  Pd7       1.0  0.83561  0.66284  0.83465  1.0000
  Pd  Pd8       1.0  0.66250  0.83188  0.16657  1.0000
  Pd  Pd9       1.0  0.16439  0.33716  0.16535  1.0000
