data_image0
_chemical_formula_structural       Pd19Se30
_chemical_formula_sum              "Pd19 Se30"
_cell_length_a       9.51888
_cell_length_b       11.4209
_cell_length_c       11.5735
_cell_angle_alpha    80.544
_cell_angle_beta     68.6633
_cell_angle_gamma    66.4

_space_group_name_H-M_alt    "P 1"
_space_group_IT_number       1

loop_
  _space_group_symop_operation_xyz
  'x, y, z'

loop_
  _atom_site_type_symbol
  _atom_site_label
  _atom_site_symmetry_multiplicity
  _atom_site_fract_x
  _atom_site_fract_y
  _atom_site_fract_z
  _atom_site_occupancy
  Pd  Pd1       1.0  0.29148  0.26684  0.31058  1.0000
  Pd  Pd2       1.0  0.70100  0.06637  0.69893  1.0000
  Pd  Pd3       1.0  0.88664  0.46955  0.90806  1.0000
  Pd  Pd4       1.0  0.48420  0.66842  0.50658  1.0000
  Pd  Pd5       1.0  0.08676  0.87335  0.10829  1.0000
  Pd  Pd6       1.0  0.29900  0.93363  0.30107  1.0000
  Pd  Pd7       1.0  0.70852  0.73316  0.68942  1.0000
  Pd  Pd8       1.0  0.91324  0.12665  0.89171  1.0000
  Pd  Pd9       1.0  0.51580  0.33158  0.49342  1.0000
  Pd  Pd10      1.0  0.11336  0.53045  0.09194  1.0000
  Pd  Pd11      1.0  0.50000  0.00000  0.50000  1.0000
  Pd  Pd12      1.0  0.90094  0.80267  0.89956  1.0000
  Pd  Pd13      1.0  0.09906  0.19733  0.10044  1.0000
  Pd  Pd14      1.0  0.69766  0.39968  0.69760  1.0000
  Pd  Pd15      1.0  0.30234  0.60032  0.30240  1.0000
  Pd  Pd16      1.0  0.19868  0.39934  0.69959  1.0000
  Pd  Pd17      1.0  0.40003  0.80146  0.89967  1.0000
  Pd  Pd18      1.0  0.59997  0.19854  0.10033  1.0000
  Pd  Pd19      1.0  0.80132  0.60066  0.30041  1.0000
  Se  Se1       1.0  0.42265  0.49474  0.66182  1.0000
  Se  Se2       1.0  0.63156  0.89381  0.85517  1.0000
  Se  Se3       1.0  0.82832  0.29012  0.05720  1.0000
  Se  Se4       1.0  0.02960  0.69258  0.25904  1.0000
  Se  Se5       1.0  0.22903  0.09290  0.46227  1.0000
  Se  Se6       1.0  0.43077  0.16761  0.65450  1.0000
  Se  Se7       1.0  0.62554  0.56894  0.85368  1.0000
  Se  Se8       1.0  0.82180  0.96856  0.05939  1.0000
  Se  Se9       1.0  0.02765  0.36698  0.25604  1.0000
  Se  Se10      1.0  0.22129  0.76753  0.45821  1.0000
  Se  Se11      1.0  0.23667  0.42959  0.46330  1.0000
  Se  Se12      1.0  0.42524  0.83268  0.66254  1.0000
  Se  Se13      1.0  0.63520  0.22820  0.85902  1.0000
  Se  Se14      1.0  0.83264  0.63301  0.06117  1.0000
  Se  Se15      1.0  0.02668  0.03424  0.26350  1.0000
  Se  Se16      1.0  0.97040  0.30742  0.74096  1.0000
  Se  Se17      1.0  0.17168  0.70988  0.94280  1.0000
  Se  Se18      1.0  0.36844  0.10619  0.14483  1.0000
  Se  Se19      1.0  0.57735  0.50526  0.33818  1.0000
  Se  Se20      1.0  0.77097  0.90710  0.53773  1.0000
  Se  Se21      1.0  0.97235  0.63302  0.74396  1.0000
  Se  Se22      1.0  0.17820  0.03144  0.94061  1.0000
  Se  Se23      1.0  0.37446  0.43106  0.14632  1.0000
  Se  Se24      1.0  0.56923  0.83239  0.34550  1.0000
  Se  Se25      1.0  0.77871  0.23247  0.54179  1.0000
  Se  Se26      1.0  0.16736  0.36699  0.93883  1.0000
  Se  Se27      1.0  0.36480  0.77180  0.14098  1.0000
  Se  Se28      1.0  0.57476  0.16732  0.33746  1.0000
  Se  Se29      1.0  0.76333  0.57041  0.53670  1.0000
  Se  Se30      1.0  0.97332  0.96576  0.73650  1.0000
