data_image0
_chemical_formula_structural       S16Pd8
_chemical_formula_sum              "S16 Pd8"
_cell_length_a       8.28829
_cell_length_b       8.28829
_cell_length_c       8.28829
_cell_angle_alpha    60
_cell_angle_beta     60
_cell_angle_gamma    60

_space_group_name_H-M_alt    "P 1"
_space_group_IT_number       1

loop_
  _space_group_symop_operation_xyz
  'x, y, z'

loop_
  _atom_site_type_symbol
  _atom_site_label
  _atom_site_symmetry_multiplicity
  _atom_site_fract_x
  _atom_site_fract_y
  _atom_site_fract_z
  _atom_site_occupancy
  S   S1        1.0  0.12500  0.62500  0.62500  1.0000
  S   S2        1.0  0.62500  0.12500  0.62500  1.0000
  S   S3        1.0  0.62500  0.62500  0.12500  1.0000
  S   S4        1.0  0.62500  0.62500  0.62500  1.0000
  S   S5        1.0  0.81094  0.81094  0.18906  1.0000
  S   S6        1.0  0.18906  0.18906  0.81094  1.0000
  S   S7        1.0  0.81094  0.18906  0.81094  1.0000
  S   S8        1.0  0.18906  0.81094  0.18906  1.0000
  S   S9        1.0  0.18906  0.81094  0.81094  1.0000
  S   S10       1.0  0.81094  0.18906  0.18906  1.0000
  S   S11       1.0  0.43906  0.43906  0.06094  1.0000
  S   S12       1.0  0.06094  0.06094  0.43906  1.0000
  S   S13       1.0  0.43906  0.06094  0.43906  1.0000
  S   S14       1.0  0.06094  0.43906  0.06094  1.0000
  S   S15       1.0  0.06094  0.43906  0.43906  1.0000
  S   S16       1.0  0.43906  0.06094  0.06094  1.0000
  Pd  Pd1       1.0  0.80150  0.39950  0.39950  1.0000
  Pd  Pd2       1.0  0.39950  0.80150  0.39950  1.0000
  Pd  Pd3       1.0  0.39950  0.39950  0.80150  1.0000
  Pd  Pd4       1.0  0.39950  0.39950  0.39950  1.0000
  Pd  Pd5       1.0  0.44850  0.85050  0.85050  1.0000
  Pd  Pd6       1.0  0.85050  0.44850  0.85050  1.0000
  Pd  Pd7       1.0  0.85050  0.85050  0.44850  1.0000
  Pd  Pd8       1.0  0.85050  0.85050  0.85050  1.0000
