data_image0
_chemical_formula_structural       Pd8Se16
_chemical_formula_sum              "Pd8 Se16"
_cell_length_a       7.20338
_cell_length_b       7.20338
_cell_length_c       10.4342
_cell_angle_alpha    90
_cell_angle_beta     90
_cell_angle_gamma    90

_space_group_name_H-M_alt    "P 1"
_space_group_IT_number       1

loop_
  _space_group_symop_operation_xyz
  'x, y, z'

loop_
  _atom_site_type_symbol
  _atom_site_label
  _atom_site_symmetry_multiplicity
  _atom_site_fract_x
  _atom_site_fract_y
  _atom_site_fract_z
  _atom_site_occupancy
  Pd  Pd1       1.0  0.28888  0.50000  0.89620  1.0000
  Pd  Pd2       1.0  0.50000  0.71112  0.10380  1.0000
  Pd  Pd3       1.0  0.78888  0.00000  0.60380  1.0000
  Pd  Pd4       1.0  0.50000  0.28888  0.10380  1.0000
  Pd  Pd5       1.0  0.71112  0.50000  0.89620  1.0000
  Pd  Pd6       1.0  0.00000  0.78888  0.39620  1.0000
  Pd  Pd7       1.0  0.00000  0.21112  0.39620  1.0000
  Pd  Pd8       1.0  0.21112  0.00000  0.60380  1.0000
  Se  Se1       1.0  0.00000  0.00000  0.79269  1.0000
  Se  Se2       1.0  0.50000  0.00000  0.23084  1.0000
  Se  Se3       1.0  0.20707  0.79293  0.00000  1.0000
  Se  Se4       1.0  0.70707  0.29293  0.50000  1.0000
  Se  Se5       1.0  0.00000  0.00000  0.20731  1.0000
  Se  Se6       1.0  0.29293  0.29293  0.50000  1.0000
  Se  Se7       1.0  0.29293  0.70707  0.50000  1.0000
  Se  Se8       1.0  0.50000  0.00000  0.73084  1.0000
  Se  Se9       1.0  0.50000  0.50000  0.29269  1.0000
  Se  Se10      1.0  0.70707  0.70707  0.50000  1.0000
  Se  Se11      1.0  0.50000  0.50000  0.70731  1.0000
  Se  Se12      1.0  0.00000  0.50000  0.26916  1.0000
  Se  Se13      1.0  0.20707  0.20707  0.00000  1.0000
  Se  Se14      1.0  0.79293  0.79293  0.00000  1.0000
  Se  Se15      1.0  0.79293  0.20707  0.00000  1.0000
  Se  Se16      1.0  0.00000  0.50000  0.76916  1.0000
