data_image0
_chemical_formula_structural       Se18Pd10
_chemical_formula_sum              "Se18 Pd10"
_cell_length_a       7.59556
_cell_length_b       8.74471
_cell_length_c       9.84084
_cell_angle_alpha    76.0143
_cell_angle_beta     74.0547
_cell_angle_gamma    73.1247

_space_group_name_H-M_alt    "P 1"
_space_group_IT_number       1

loop_
  _space_group_symop_operation_xyz
  'x, y, z'

loop_
  _atom_site_type_symbol
  _atom_site_label
  _atom_site_symmetry_multiplicity
  _atom_site_fract_x
  _atom_site_fract_y
  _atom_site_fract_z
  _atom_site_occupancy
  Se  Se1       1.0  0.03993  0.46612  0.16443  1.0000
  Se  Se2       1.0  0.02745  0.92403  0.15657  1.0000
  Se  Se3       1.0  0.97255  0.07597  0.84343  1.0000
  Se  Se4       1.0  0.16971  0.34290  0.46586  1.0000
  Se  Se5       1.0  0.96007  0.53388  0.83557  1.0000
  Se  Se6       1.0  0.49873  0.55785  0.34465  1.0000
  Se  Se7       1.0  0.36049  0.63901  0.06884  1.0000
  Se  Se8       1.0  0.23953  0.75469  0.76839  1.0000
  Se  Se9       1.0  0.66479  0.84235  0.96512  1.0000
  Se  Se10      1.0  0.15203  0.84878  0.45337  1.0000
  Se  Se11      1.0  0.52767  0.96810  0.66429  1.0000
  Se  Se12      1.0  0.47233  0.03190  0.33571  1.0000
  Se  Se13      1.0  0.33521  0.15765  0.03488  1.0000
  Se  Se14      1.0  0.84797  0.15122  0.54663  1.0000
  Se  Se15      1.0  0.63951  0.36099  0.93116  1.0000
  Se  Se16      1.0  0.50127  0.44215  0.65535  1.0000
  Se  Se17      1.0  0.83029  0.65710  0.53414  1.0000
  Se  Se18      1.0  0.76047  0.24531  0.23161  1.0000
  Pd  Pd1       1.0  0.89222  0.84806  0.70103  1.0000
  Pd  Pd2       1.0  0.89025  0.35789  0.68804  1.0000
  Pd  Pd3       1.0  0.10975  0.64211  0.31196  1.0000
  Pd  Pd4       1.0  0.29626  0.94329  0.91372  1.0000
  Pd  Pd5       1.0  0.10778  0.15194  0.29897  1.0000
  Pd  Pd6       1.0  0.51321  0.24652  0.49005  1.0000
  Pd  Pd7       1.0  0.28438  0.45722  0.90805  1.0000
  Pd  Pd8       1.0  0.71562  0.54278  0.09195  1.0000
  Pd  Pd9       1.0  0.48679  0.75348  0.50995  1.0000
  Pd  Pd10      1.0  0.70374  0.05671  0.08628  1.0000
