data_image0
_chemical_formula_structural       Pd6S18
_chemical_formula_sum              "Pd6 S18"
_cell_length_a       8.89309
_cell_length_b       8.89309
_cell_length_c       8.89309
_cell_angle_alpha    106.68
_cell_angle_beta     106.68
_cell_angle_gamma    106.68

_space_group_name_H-M_alt    "P 1"
_space_group_IT_number       1

loop_
  _space_group_symop_operation_xyz
  'x, y, z'

loop_
  _atom_site_type_symbol
  _atom_site_label
  _atom_site_symmetry_multiplicity
  _atom_site_fract_x
  _atom_site_fract_y
  _atom_site_fract_z
  _atom_site_occupancy
  Pd  Pd1       1.0  0.14569  0.06910  0.29744  1.0000
  Pd  Pd2       1.0  0.06910  0.29744  0.14569  1.0000
  Pd  Pd3       1.0  0.29744  0.14569  0.06910  1.0000
  Pd  Pd4       1.0  0.85431  0.93090  0.70256  1.0000
  Pd  Pd5       1.0  0.93090  0.70256  0.85431  1.0000
  Pd  Pd6       1.0  0.70256  0.85431  0.93090  1.0000
  S   S1        1.0  0.45551  0.98264  0.59493  1.0000
  S   S2        1.0  0.98264  0.59493  0.45551  1.0000
  S   S3        1.0  0.59493  0.45551  0.98264  1.0000
  S   S4        1.0  0.54449  0.01736  0.40507  1.0000
  S   S5        1.0  0.01736  0.40507  0.54449  1.0000
  S   S6        1.0  0.40507  0.54449  0.01736  1.0000
  S   S7        1.0  0.54716  0.80520  0.63847  1.0000
  S   S8        1.0  0.63847  0.54716  0.80520  1.0000
  S   S9        1.0  0.80520  0.63847  0.54716  1.0000
  S   S10       1.0  0.45284  0.19480  0.36153  1.0000
  S   S11       1.0  0.36153  0.45284  0.19480  1.0000
  S   S12       1.0  0.19480  0.36153  0.45284  1.0000
  S   S13       1.0  0.85769  0.91511  0.21478  1.0000
  S   S14       1.0  0.21478  0.85769  0.91511  1.0000
  S   S15       1.0  0.91511  0.21478  0.85769  1.0000
  S   S16       1.0  0.14231  0.08489  0.78522  1.0000
  S   S17       1.0  0.78522  0.14231  0.08489  1.0000
  S   S18       1.0  0.08489  0.78522  0.14231  1.0000
