data_image0
_chemical_formula_structural       Pd15Se24
_chemical_formula_sum              "Pd15 Se24"
_cell_length_a       9.46287
_cell_length_b       9.46624
_cell_length_c       11.4242
_cell_angle_alpha    113.823
_cell_angle_beta     113.885
_cell_angle_gamma    88.5565

_space_group_name_H-M_alt    "P 1"
_space_group_IT_number       1

loop_
  _space_group_symop_operation_xyz
  'x, y, z'

loop_
  _atom_site_type_symbol
  _atom_site_label
  _atom_site_symmetry_multiplicity
  _atom_site_fract_x
  _atom_site_fract_y
  _atom_site_fract_z
  _atom_site_occupancy
  Pd  Pd1       1.0  0.25435  0.24907  0.00270  1.0000
  Pd  Pd2       1.0  0.74739  0.74691  0.66440  1.0000
  Pd  Pd3       1.0  0.74565  0.75093  0.99730  1.0000
  Pd  Pd4       1.0  0.25261  0.25309  0.33560  1.0000
  Pd  Pd5       1.0  0.00000  0.50000  0.50000  1.0000
  Pd  Pd6       1.0  0.75098  0.25016  0.00047  1.0000
  Pd  Pd7       1.0  0.26463  0.25576  0.67271  1.0000
  Pd  Pd8       1.0  0.49118  0.98529  0.82781  1.0000
  Pd  Pd9       1.0  0.50882  0.01471  0.17219  1.0000
  Pd  Pd10      1.0  0.73537  0.74424  0.32729  1.0000
  Pd  Pd11      1.0  0.50000  0.00000  0.50000  1.0000
  Pd  Pd12      1.0  0.24902  0.74984  0.99953  1.0000
  Pd  Pd13      1.0  0.99181  0.48781  0.82337  1.0000
  Pd  Pd14      1.0  0.00819  0.51219  0.17663  1.0000
  Pd  Pd15      1.0  0.00000  0.00000  0.50000  1.0000
  Se  Se1       1.0  0.54687  0.70759  0.75024  1.0000
  Se  Se2       1.0  0.20371  0.53726  0.41796  1.0000
  Se  Se3       1.0  0.05151  0.22384  0.09149  1.0000
  Se  Se4       1.0  0.79559  0.46265  0.25289  1.0000
  Se  Se5       1.0  0.05372  0.21850  0.42601  1.0000
  Se  Se6       1.0  0.70561  0.03768  0.07848  1.0000
  Se  Se7       1.0  0.05724  0.21251  0.75407  1.0000
  Se  Se8       1.0  0.70570  0.04010  0.41663  1.0000
  Se  Se9       1.0  0.29439  0.96232  0.92152  1.0000
  Se  Se10      1.0  0.54352  0.72457  0.08650  1.0000
  Se  Se11      1.0  0.94628  0.78150  0.57399  1.0000
  Se  Se12      1.0  0.30377  0.96896  0.25434  1.0000
  Se  Se13      1.0  0.20441  0.53735  0.74711  1.0000
  Se  Se14      1.0  0.54413  0.71691  0.42282  1.0000
  Se  Se15      1.0  0.94849  0.77616  0.90851  1.0000
  Se  Se16      1.0  0.19969  0.53430  0.07444  1.0000
  Se  Se17      1.0  0.79629  0.46274  0.58204  1.0000
  Se  Se18      1.0  0.45313  0.29241  0.24976  1.0000
  Se  Se19      1.0  0.80031  0.46570  0.92556  1.0000
  Se  Se20      1.0  0.45587  0.28309  0.57718  1.0000
  Se  Se21      1.0  0.69623  0.03104  0.74566  1.0000
  Se  Se22      1.0  0.45648  0.27543  0.91350  1.0000
  Se  Se23      1.0  0.29430  0.95990  0.58337  1.0000
  Se  Se24      1.0  0.94276  0.78749  0.24593  1.0000
