data_image0
_chemical_formula_structural       Pd2Se6
_chemical_formula_sum              "Pd2 Se6"
_cell_length_a       5.81027
_cell_length_b       5.86543
_cell_length_c       5.84396
_cell_angle_alpha    88.0108
_cell_angle_beta     92.4365
_cell_angle_gamma    87.6812

_space_group_name_H-M_alt    "P 1"
_space_group_IT_number       1

loop_
  _space_group_symop_operation_xyz
  'x, y, z'

loop_
  _atom_site_type_symbol
  _atom_site_label
  _atom_site_symmetry_multiplicity
  _atom_site_fract_x
  _atom_site_fract_y
  _atom_site_fract_z
  _atom_site_occupancy
  Pd  Pd1       1.0  0.50001  0.50000  0.50001  1.0000
  Pd  Pd2       1.0  1.00000  0.00000  0.99999  1.0000
  Se  Se1       1.0  0.25096  0.25123  0.74866  1.0000
  Se  Se2       1.0  0.74905  0.74885  0.25142  1.0000
  Se  Se3       1.0  0.75055  0.75040  0.75090  1.0000
  Se  Se4       1.0  0.24953  0.24961  0.24901  1.0000
  Se  Se5       1.0  0.74987  0.24937  0.24981  1.0000
  Se  Se6       1.0  0.25005  0.75054  0.75019  1.0000
