data_image0
_chemical_formula_structural       Pd3Se6
_chemical_formula_sum              "Pd3 Se6"
_cell_length_a       5.79208
_cell_length_b       5.79208
_cell_length_c       11.5361
_cell_angle_alpha    99.4024
_cell_angle_beta     99.4024
_cell_angle_gamma    90.1811

_space_group_name_H-M_alt    "P 1"
_space_group_IT_number       1

loop_
  _space_group_symop_operation_xyz
  'x, y, z'

loop_
  _atom_site_type_symbol
  _atom_site_label
  _atom_site_symmetry_multiplicity
  _atom_site_fract_x
  _atom_site_fract_y
  _atom_site_fract_z
  _atom_site_occupancy
  Pd  Pd1       1.0  0.91511  0.61542  0.62366  1.0000
  Pd  Pd2       1.0  0.47695  0.52305  0.50000  1.0000
  Pd  Pd3       1.0  0.38458  0.08489  0.37634  1.0000
  Se  Se1       1.0  0.11617  0.29119  0.27269  1.0000
  Se  Se2       1.0  0.27278  0.52718  0.67484  1.0000
  Se  Se3       1.0  0.77686  0.12407  0.37742  1.0000
  Se  Se4       1.0  0.47282  0.72722  0.32516  1.0000
  Se  Se5       1.0  0.87593  0.22314  0.62258  1.0000
  Se  Se6       1.0  0.70881  0.88383  0.72731  1.0000
