data_image0
_chemical_formula_structural       Pd4S12
_chemical_formula_sum              "Pd4 S12"
_cell_length_a       6.78531
_cell_length_b       4.65045
_cell_length_c       10.326
_cell_angle_alpha    90
_cell_angle_beta     90
_cell_angle_gamma    90

_space_group_name_H-M_alt    "P 1"
_space_group_IT_number       1

loop_
  _space_group_symop_operation_xyz
  'x, y, z'

loop_
  _atom_site_type_symbol
  _atom_site_label
  _atom_site_symmetry_multiplicity
  _atom_site_fract_x
  _atom_site_fract_y
  _atom_site_fract_z
  _atom_site_occupancy
  Pd  Pd1       1.0  0.24867  0.76489  0.50000  1.0000
  Pd  Pd2       1.0  0.75133  0.76489  0.50000  1.0000
  Pd  Pd3       1.0  0.25133  0.23511  0.00000  1.0000
  Pd  Pd4       1.0  0.74867  0.23511  0.00000  1.0000
  S   S1        1.0  0.00000  0.52554  0.64223  1.0000
  S   S2        1.0  0.00000  0.18920  0.50000  1.0000
  S   S3        1.0  0.00000  0.99558  0.85883  1.0000
  S   S4        1.0  0.00000  0.99558  0.14117  1.0000
  S   S5        1.0  0.50000  0.00442  0.35883  1.0000
  S   S6        1.0  0.50000  0.47446  0.14223  1.0000
  S   S7        1.0  0.50000  0.33927  0.50000  1.0000
  S   S8        1.0  0.50000  0.00442  0.64117  1.0000
  S   S9        1.0  0.50000  0.47446  0.85777  1.0000
  S   S10       1.0  0.50000  0.81080  0.00000  1.0000
  S   S11       1.0  0.00000  0.66073  0.00000  1.0000
  S   S12       1.0  0.00000  0.52554  0.35777  1.0000
