data_image0
_chemical_formula_structural       Pd3Se34
_chemical_formula_sum              "Pd3 Se34"
_cell_length_a       10.6377
_cell_length_b       10.6377
_cell_length_c       10.6377
_cell_angle_alpha    79.2758
_cell_angle_beta     79.2758
_cell_angle_gamma    79.2758

_space_group_name_H-M_alt    "P 1"
_space_group_IT_number       1

loop_
  _space_group_symop_operation_xyz
  'x, y, z'

loop_
  _atom_site_type_symbol
  _atom_site_label
  _atom_site_symmetry_multiplicity
  _atom_site_fract_x
  _atom_site_fract_y
  _atom_site_fract_z
  _atom_site_occupancy
  Pd  Pd1       1.0  0.36479  0.36479  0.36479  1.0000
  Pd  Pd2       1.0  0.63521  0.63521  0.63521  1.0000
  Pd  Pd3       1.0  0.00000  0.00000  0.00000  1.0000
  Se  Se1       1.0  0.25281  0.25281  0.25281  1.0000
  Se  Se2       1.0  0.85725  0.18782  0.18782  1.0000
  Se  Se3       1.0  0.18782  0.18782  0.85725  1.0000
  Se  Se4       1.0  0.18782  0.85725  0.18782  1.0000
  Se  Se5       1.0  0.74719  0.74719  0.74719  1.0000
  Se  Se6       1.0  0.14275  0.81218  0.81218  1.0000
  Se  Se7       1.0  0.81218  0.81218  0.14275  1.0000
  Se  Se8       1.0  0.81218  0.14275  0.81218  1.0000
  Se  Se9       1.0  0.10992  0.10992  0.10992  1.0000
  Se  Se10      1.0  0.89008  0.89008  0.89008  1.0000
  Se  Se11      1.0  0.39176  0.08972  0.39176  1.0000
  Se  Se12      1.0  0.73771  0.37754  0.04941  1.0000
  Se  Se13      1.0  0.04941  0.37754  0.73771  1.0000
  Se  Se14      1.0  0.38339  0.64468  0.38339  1.0000
  Se  Se15      1.0  0.37754  0.04941  0.73771  1.0000
  Se  Se16      1.0  0.08972  0.39176  0.39176  1.0000
  Se  Se17      1.0  0.64468  0.38339  0.38339  1.0000
  Se  Se18      1.0  0.37754  0.73771  0.04941  1.0000
  Se  Se19      1.0  0.73771  0.04941  0.37754  1.0000
  Se  Se20      1.0  0.38339  0.38339  0.64468  1.0000
  Se  Se21      1.0  0.39176  0.39176  0.08972  1.0000
  Se  Se22      1.0  0.04941  0.73771  0.37754  1.0000
  Se  Se23      1.0  0.60824  0.91028  0.60824  1.0000
  Se  Se24      1.0  0.26229  0.62246  0.95059  1.0000
  Se  Se25      1.0  0.95059  0.62246  0.26229  1.0000
  Se  Se26      1.0  0.61661  0.35532  0.61661  1.0000
  Se  Se27      1.0  0.62246  0.95059  0.26229  1.0000
  Se  Se28      1.0  0.91028  0.60824  0.60824  1.0000
  Se  Se29      1.0  0.35532  0.61661  0.61661  1.0000
  Se  Se30      1.0  0.62246  0.26229  0.95059  1.0000
  Se  Se31      1.0  0.26229  0.95059  0.62246  1.0000
  Se  Se32      1.0  0.61661  0.61661  0.35532  1.0000
  Se  Se33      1.0  0.60824  0.60824  0.91028  1.0000
  Se  Se34      1.0  0.95059  0.26229  0.62246  1.0000
