data_image0
_chemical_formula_structural       Pd4Se14
_chemical_formula_sum              "Pd4 Se14"
_cell_length_a       6.97343
_cell_length_b       6.13522
_cell_length_c       13.0974
_cell_angle_alpha    82.2768
_cell_angle_beta     89.9688
_cell_angle_gamma    89.6889

_space_group_name_H-M_alt    "P 1"
_space_group_IT_number       1

loop_
  _space_group_symop_operation_xyz
  'x, y, z'

loop_
  _atom_site_type_symbol
  _atom_site_label
  _atom_site_symmetry_multiplicity
  _atom_site_fract_x
  _atom_site_fract_y
  _atom_site_fract_z
  _atom_site_occupancy
  Pd  Pd1       1.0  0.05279  0.15516  0.06244  1.0000
  Pd  Pd2       1.0  0.62379  0.82818  0.48575  1.0000
  Pd  Pd3       1.0  0.37621  0.17182  0.51425  1.0000
  Pd  Pd4       1.0  0.94721  0.84484  0.93756  1.0000
  Se  Se1       1.0  0.29812  0.43086  0.08096  1.0000
  Se  Se2       1.0  0.12642  0.74735  0.10220  1.0000
  Se  Se3       1.0  0.88451  0.28220  0.20975  1.0000
  Se  Se4       1.0  0.64544  0.01246  0.22202  1.0000
  Se  Se5       1.0  0.76788  0.71067  0.33069  1.0000
  Se  Se6       1.0  0.23337  0.48048  0.40487  1.0000
  Se  Se7       1.0  0.26878  0.78449  0.48991  1.0000
  Se  Se8       1.0  0.73122  0.21551  0.51009  1.0000
  Se  Se9       1.0  0.76663  0.51952  0.59513  1.0000
  Se  Se10      1.0  0.23212  0.28933  0.66931  1.0000
  Se  Se11      1.0  0.35456  0.98754  0.77798  1.0000
  Se  Se12      1.0  0.11549  0.71780  0.79025  1.0000
  Se  Se13      1.0  0.87358  0.25265  0.89780  1.0000
  Se  Se14      1.0  0.70188  0.56914  0.91904  1.0000
