data_image0
_chemical_formula_structural       Se5Pd2
_chemical_formula_sum              "Se5 Pd2"
_cell_length_a       11.046
_cell_length_b       11.046
_cell_length_c       11.046
_cell_angle_alpha    20.3204
_cell_angle_beta     20.3204
_cell_angle_gamma    20.3204

_space_group_name_H-M_alt    "P 1"
_space_group_IT_number       1

loop_
  _space_group_symop_operation_xyz
  'x, y, z'

loop_
  _atom_site_type_symbol
  _atom_site_label
  _atom_site_symmetry_multiplicity
  _atom_site_fract_x
  _atom_site_fract_y
  _atom_site_fract_z
  _atom_site_occupancy
  Se  Se1       1.0  0.50000  0.50000  0.50000  1.0000
  Se  Se2       1.0  0.63188  0.63188  0.63188  1.0000
  Se  Se3       1.0  0.36812  0.36812  0.36812  1.0000
  Se  Se4       1.0  0.77881  0.77881  0.77881  1.0000
  Se  Se5       1.0  0.22119  0.22119  0.22119  1.0000
  Pd  Pd1       1.0  0.92812  0.92812  0.92812  1.0000
  Pd  Pd2       1.0  0.07188  0.07188  0.07188  1.0000
