data_image0
_chemical_formula_structural       Pd3S4
_chemical_formula_sum              "Pd3 S4"
_cell_length_a       3.59424
_cell_length_b       3.59424
_cell_length_c       11.4528
_cell_angle_alpha    90
_cell_angle_beta     90
_cell_angle_gamma    120

_space_group_name_H-M_alt    "P 1"
_space_group_IT_number       1

loop_
  _space_group_symop_operation_xyz
  'x, y, z'

loop_
  _atom_site_type_symbol
  _atom_site_label
  _atom_site_symmetry_multiplicity
  _atom_site_fract_x
  _atom_site_fract_y
  _atom_site_fract_z
  _atom_site_occupancy
  Pd  Pd1       1.0  0.33333  0.66667  0.38448  1.0000
  Pd  Pd2       1.0  0.33333  0.66667  0.13189  1.0000
  Pd  Pd3       1.0  0.66667  0.33333  0.86576  1.0000
  S   S1        1.0  0.66667  0.33333  0.25999  1.0000
  S   S2        1.0  0.33333  0.66667  0.76118  1.0000
  S   S3        1.0  0.00000  0.00000  0.49086  1.0000
  S   S4        1.0  0.00000  0.00000  0.99084  1.0000
