data_image0
_chemical_formula_structural       Se24Pd8
_chemical_formula_sum              "Se24 Pd8"
_cell_length_a       9.98912
_cell_length_b       9.98912
_cell_length_c       9.52731
_cell_angle_alpha    90
_cell_angle_beta     90
_cell_angle_gamma    90

_space_group_name_H-M_alt    "P 1"
_space_group_IT_number       1

loop_
  _space_group_symop_operation_xyz
  'x, y, z'

loop_
  _atom_site_type_symbol
  _atom_site_label
  _atom_site_symmetry_multiplicity
  _atom_site_fract_x
  _atom_site_fract_y
  _atom_site_fract_z
  _atom_site_occupancy
  Se  Se1       1.0  0.24997  0.50000  0.50000  1.0000
  Se  Se2       1.0  0.75003  0.50000  0.50000  1.0000
  Se  Se3       1.0  0.50000  0.75003  0.50000  1.0000
  Se  Se4       1.0  0.50000  0.24997  0.50000  1.0000
  Se  Se5       1.0  0.00000  0.50000  0.74578  1.0000
  Se  Se6       1.0  0.50000  0.00000  0.74578  1.0000
  Se  Se7       1.0  0.00000  0.50000  0.25422  1.0000
  Se  Se8       1.0  0.50000  0.00000  0.25422  1.0000
  Se  Se9       1.0  0.24293  0.00000  0.00000  1.0000
  Se  Se10      1.0  0.75707  0.00000  0.00000  1.0000
  Se  Se11      1.0  0.00000  0.75707  0.00000  1.0000
  Se  Se12      1.0  0.00000  0.24293  0.00000  1.0000
  Se  Se13      1.0  0.25185  0.50000  0.00000  1.0000
  Se  Se14      1.0  0.74815  0.50000  0.00000  1.0000
  Se  Se15      1.0  0.50000  0.74815  0.00000  1.0000
  Se  Se16      1.0  0.50000  0.25185  0.00000  1.0000
  Se  Se17      1.0  0.31319  0.31319  0.80733  1.0000
  Se  Se18      1.0  0.68681  0.68681  0.80733  1.0000
  Se  Se19      1.0  0.31319  0.68681  0.80733  1.0000
  Se  Se20      1.0  0.68681  0.31319  0.80733  1.0000
  Se  Se21      1.0  0.68681  0.68681  0.19267  1.0000
  Se  Se22      1.0  0.31319  0.31319  0.19267  1.0000
  Se  Se23      1.0  0.68681  0.31319  0.19267  1.0000
  Se  Se24      1.0  0.31319  0.68681  0.19267  1.0000
  Pd  Pd1       1.0  0.00000  0.00000  0.00000  1.0000
  Pd  Pd2       1.0  0.00000  0.00000  0.50000  1.0000
  Pd  Pd3       1.0  0.50000  0.50000  0.00000  1.0000
  Pd  Pd4       1.0  0.50000  0.50000  0.50000  1.0000
  Pd  Pd5       1.0  0.00000  0.50000  0.50000  1.0000
  Pd  Pd6       1.0  0.50000  0.00000  0.50000  1.0000
  Pd  Pd7       1.0  0.00000  0.50000  0.00000  1.0000
  Pd  Pd8       1.0  0.50000  0.00000  0.00000  1.0000
