data_image0
_chemical_formula_structural       Se12Pd6
_chemical_formula_sum              "Se12 Pd6"
_cell_length_a       5.00362
_cell_length_b       6.83831
_cell_length_c       11.2017
_cell_angle_alpha    90
_cell_angle_beta     90
_cell_angle_gamma    90

_space_group_name_H-M_alt    "P 1"
_space_group_IT_number       1

loop_
  _space_group_symop_operation_xyz
  'x, y, z'

loop_
  _atom_site_type_symbol
  _atom_site_label
  _atom_site_symmetry_multiplicity
  _atom_site_fract_x
  _atom_site_fract_y
  _atom_site_fract_z
  _atom_site_occupancy
  Se  Se1       1.0  0.30222  0.19539  0.60843  1.0000
  Se  Se2       1.0  0.80222  0.30461  0.39157  1.0000
  Se  Se3       1.0  0.19556  0.61239  0.06758  1.0000
  Se  Se4       1.0  0.19778  0.69539  0.39157  1.0000
  Se  Se5       1.0  0.27635  0.68643  0.72307  1.0000
  Se  Se6       1.0  0.77635  0.81357  0.27693  1.0000
  Se  Se7       1.0  0.69778  0.80461  0.60843  1.0000
  Se  Se8       1.0  0.30444  0.11239  0.93242  1.0000
  Se  Se9       1.0  0.22365  0.18643  0.27693  1.0000
  Se  Se10      1.0  0.72365  0.31357  0.72307  1.0000
  Se  Se11      1.0  0.80444  0.38761  0.06758  1.0000
  Se  Se12      1.0  0.69556  0.88761  0.93242  1.0000
  Pd  Pd1       1.0  0.00000  0.00000  0.75727  1.0000
  Pd  Pd2       1.0  0.00000  0.50000  0.56417  1.0000
  Pd  Pd3       1.0  0.50000  0.00000  0.43583  1.0000
  Pd  Pd4       1.0  0.00000  0.00000  0.10669  1.0000
  Pd  Pd5       1.0  0.50000  0.50000  0.89331  1.0000
  Pd  Pd6       1.0  0.50000  0.50000  0.24273  1.0000
