data_image0
_chemical_formula_structural       Se4Pd2
_chemical_formula_sum              "Se4 Pd2"
_cell_length_a       6.96381
_cell_length_b       5.89495
_cell_length_c       5.04061
_cell_angle_alpha    78.6815
_cell_angle_beta     56.1038
_cell_angle_gamma    45.2147

_space_group_name_H-M_alt    "P 1"
_space_group_IT_number       1

loop_
  _space_group_symop_operation_xyz
  'x, y, z'

loop_
  _atom_site_type_symbol
  _atom_site_label
  _atom_site_symmetry_multiplicity
  _atom_site_fract_x
  _atom_site_fract_y
  _atom_site_fract_z
  _atom_site_occupancy
  Se  Se1       1.0  0.57267  0.92733  0.57267  1.0000
  Se  Se2       1.0  0.92733  0.57267  0.92733  1.0000
  Se  Se3       1.0  0.67733  0.32267  0.67733  1.0000
  Se  Se4       1.0  0.32267  0.67733  0.32267  1.0000
  Pd  Pd1       1.0  0.25000  0.25000  0.25000  1.0000
  Pd  Pd2       1.0  0.00000  0.00000  0.00000  1.0000
