data_image0
_chemical_formula_structural       PdSe12
_chemical_formula_sum              "Pd1 Se12"
_cell_length_a       7.27955
_cell_length_b       7.27955
_cell_length_c       7.27955
_cell_angle_alpha    109.471
_cell_angle_beta     109.471
_cell_angle_gamma    109.471

_space_group_name_H-M_alt    "P 1"
_space_group_IT_number       1

loop_
  _space_group_symop_operation_xyz
  'x, y, z'

loop_
  _atom_site_type_symbol
  _atom_site_label
  _atom_site_symmetry_multiplicity
  _atom_site_fract_x
  _atom_site_fract_y
  _atom_site_fract_z
  _atom_site_occupancy
  Pd  Pd1       1.0  0.00000  0.00000  0.00000  1.0000
  Se  Se1       1.0  0.33626  0.19418  0.85792  1.0000
  Se  Se2       1.0  0.66374  0.80582  0.14208  1.0000
  Se  Se3       1.0  0.66374  0.52166  0.85792  1.0000
  Se  Se4       1.0  0.33626  0.47834  0.14208  1.0000
  Se  Se5       1.0  0.19418  0.85792  0.33626  1.0000
  Se  Se6       1.0  0.80582  0.14208  0.66374  1.0000
  Se  Se7       1.0  0.52166  0.85792  0.66374  1.0000
  Se  Se8       1.0  0.47834  0.14208  0.33626  1.0000
  Se  Se9       1.0  0.85792  0.33626  0.19418  1.0000
  Se  Se10      1.0  0.14208  0.66374  0.80582  1.0000
  Se  Se11      1.0  0.85792  0.66374  0.52166  1.0000
  Se  Se12      1.0  0.14208  0.33626  0.47834  1.0000
