data_image0
_chemical_formula_structural       Se12Pd2
_chemical_formula_sum              "Se12 Pd2"
_cell_length_a       14.0084
_cell_length_b       14.0084
_cell_length_c       9.43413
_cell_angle_alpha    45.0738
_cell_angle_beta     45.0738
_cell_angle_gamma    18.7469

_space_group_name_H-M_alt    "P 1"
_space_group_IT_number       1

loop_
  _space_group_symop_operation_xyz
  'x, y, z'

loop_
  _atom_site_type_symbol
  _atom_site_label
  _atom_site_symmetry_multiplicity
  _atom_site_fract_x
  _atom_site_fract_y
  _atom_site_fract_z
  _atom_site_occupancy
  Se  Se1       1.0  0.44541  0.44541  0.06523  1.0000
  Se  Se2       1.0  0.55459  0.55459  0.93477  1.0000
  Se  Se3       1.0  0.47633  0.47633  0.67201  1.0000
  Se  Se4       1.0  0.52367  0.52367  0.32799  1.0000
  Se  Se5       1.0  0.86226  0.86226  0.57737  1.0000
  Se  Se6       1.0  0.13774  0.13774  0.42263  1.0000
  Se  Se7       1.0  0.01632  0.01632  0.66751  1.0000
  Se  Se8       1.0  0.98368  0.98368  0.33249  1.0000
  Se  Se9       1.0  0.22235  0.22235  0.79384  1.0000
  Se  Se10      1.0  0.77765  0.77765  0.20616  1.0000
  Se  Se11      1.0  0.83702  0.83702  0.29275  1.0000
  Se  Se12      1.0  0.16298  0.16298  0.70725  1.0000
  Pd  Pd1       1.0  0.65697  0.65697  0.55041  1.0000
  Pd  Pd2       1.0  0.34303  0.34303  0.44959  1.0000
