data_image0
_chemical_formula_structural       Pd10Se16
_chemical_formula_sum              "Pd10 Se16"
_cell_length_a       7.58254
_cell_length_b       11.0708
_cell_length_c       7.6167
_cell_angle_alpha    90.8765
_cell_angle_beta     119.852
_cell_angle_gamma    90

_space_group_name_H-M_alt    "P 1"
_space_group_IT_number       1

loop_
  _space_group_symop_operation_xyz
  'x, y, z'

loop_
  _atom_site_type_symbol
  _atom_site_label
  _atom_site_symmetry_multiplicity
  _atom_site_fract_x
  _atom_site_fract_y
  _atom_site_fract_z
  _atom_site_occupancy
  Pd  Pd1       1.0  0.99993  0.99989  0.99986  1.0000
  Pd  Pd2       1.0  0.50038  0.50042  0.00076  1.0000
  Pd  Pd3       1.0  0.00449  0.73759  0.00899  1.0000
  Pd  Pd4       1.0  0.99618  0.26156  0.99235  1.0000
  Pd  Pd5       1.0  0.49581  0.76219  0.99163  1.0000
  Pd  Pd6       1.0  0.50371  0.23838  0.00742  1.0000
  Pd  Pd7       1.0  0.49082  0.74966  0.50022  1.0000
  Pd  Pd8       1.0  0.00940  0.74966  0.50022  1.0000
  Pd  Pd9       1.0  0.50868  0.25035  0.49944  1.0000
  Pd  Pd10      1.0  0.99076  0.25035  0.49944  1.0000
  Se  Se1       1.0  0.16318  0.14190  0.32636  1.0000
  Se  Se2       1.0  0.83387  0.37511  0.66773  1.0000
  Se  Se3       1.0  0.16704  0.62435  0.33408  1.0000
  Se  Se4       1.0  0.66286  0.64228  0.32573  1.0000
  Se  Se5       1.0  0.33647  0.35886  0.67295  1.0000
  Se  Se6       1.0  0.66594  0.12586  0.33187  1.0000
  Se  Se7       1.0  0.33303  0.87490  0.66605  1.0000
  Se  Se8       1.0  0.16795  0.62841  0.83140  1.0000
  Se  Se9       1.0  0.66345  0.62841  0.83140  1.0000
  Se  Se10      1.0  0.83256  0.37143  0.16906  1.0000
  Se  Se11      1.0  0.33651  0.37143  0.16906  1.0000
  Se  Se12      1.0  0.16299  0.12864  0.83022  1.0000
  Se  Se13      1.0  0.66723  0.12864  0.83022  1.0000
  Se  Se14      1.0  0.83715  0.87124  0.16934  1.0000
  Se  Se15      1.0  0.33218  0.87124  0.16934  1.0000
  Se  Se16      1.0  0.83744  0.85727  0.67488  1.0000
