data_image0
_chemical_formula_structural       Pd5Se34
_chemical_formula_sum              "Pd5 Se34"
_cell_length_a       15.1254
_cell_length_b       15.1254
_cell_length_c       15.1253
_cell_angle_alpha    38.4128
_cell_angle_beta     38.4128
_cell_angle_gamma    38.4128

_space_group_name_H-M_alt    "P 1"
_space_group_IT_number       1

loop_
  _space_group_symop_operation_xyz
  'x, y, z'

loop_
  _atom_site_type_symbol
  _atom_site_label
  _atom_site_symmetry_multiplicity
  _atom_site_fract_x
  _atom_site_fract_y
  _atom_site_fract_z
  _atom_site_occupancy
  Pd  Pd1       1.0  0.36718  0.36718  0.36718  1.0000
  Pd  Pd2       1.0  0.63282  0.63282  0.63282  1.0000
  Pd  Pd3       1.0  0.50000  0.00000  0.00000  1.0000
  Pd  Pd4       1.0  0.00000  0.00000  0.50000  1.0000
  Pd  Pd5       1.0  0.00000  0.50000  0.00000  1.0000
  Se  Se1       1.0  0.81007  0.81007  0.81007  1.0000
  Se  Se2       1.0  0.15953  0.79929  0.79929  1.0000
  Se  Se3       1.0  0.79929  0.79929  0.15953  1.0000
  Se  Se4       1.0  0.79929  0.15953  0.79929  1.0000
  Se  Se5       1.0  0.18993  0.18993  0.18993  1.0000
  Se  Se6       1.0  0.84047  0.20071  0.20071  1.0000
  Se  Se7       1.0  0.20071  0.20071  0.84047  1.0000
  Se  Se8       1.0  0.20071  0.84047  0.20071  1.0000
  Se  Se9       1.0  0.86632  0.86632  0.86632  1.0000
  Se  Se10      1.0  0.13368  0.13368  0.13368  1.0000
  Se  Se11      1.0  0.63363  0.94552  0.63363  1.0000
  Se  Se12      1.0  0.30720  0.63098  0.93556  1.0000
  Se  Se13      1.0  0.93556  0.63098  0.30720  1.0000
  Se  Se14      1.0  0.64182  0.24737  0.64182  1.0000
  Se  Se15      1.0  0.63098  0.93556  0.30720  1.0000
  Se  Se16      1.0  0.94552  0.63363  0.63363  1.0000
  Se  Se17      1.0  0.24737  0.64182  0.64182  1.0000
  Se  Se18      1.0  0.63098  0.30720  0.93556  1.0000
  Se  Se19      1.0  0.30720  0.93556  0.63098  1.0000
  Se  Se20      1.0  0.64182  0.64182  0.24737  1.0000
  Se  Se21      1.0  0.63363  0.63363  0.94552  1.0000
  Se  Se22      1.0  0.93556  0.30720  0.63098  1.0000
  Se  Se23      1.0  0.36637  0.05448  0.36637  1.0000
  Se  Se24      1.0  0.69280  0.36902  0.06444  1.0000
  Se  Se25      1.0  0.06444  0.36902  0.69280  1.0000
  Se  Se26      1.0  0.35818  0.75263  0.35818  1.0000
  Se  Se27      1.0  0.36902  0.06444  0.69280  1.0000
  Se  Se28      1.0  0.05448  0.36637  0.36637  1.0000
  Se  Se29      1.0  0.75263  0.35818  0.35818  1.0000
  Se  Se30      1.0  0.36902  0.69280  0.06444  1.0000
  Se  Se31      1.0  0.69280  0.06444  0.36902  1.0000
  Se  Se32      1.0  0.35818  0.35818  0.75263  1.0000
  Se  Se33      1.0  0.36637  0.36637  0.05448  1.0000
  Se  Se34      1.0  0.06444  0.69280  0.36902  1.0000
