data_image0
_chemical_formula_structural       Pd12Se24
_chemical_formula_sum              "Pd12 Se24"
_cell_length_a       12.3445
_cell_length_b       12.3445
_cell_length_c       12.3445
_cell_angle_alpha    109.471
_cell_angle_beta     109.471
_cell_angle_gamma    109.471

_space_group_name_H-M_alt    "P 1"
_space_group_IT_number       1

loop_
  _space_group_symop_operation_xyz
  'x, y, z'

loop_
  _atom_site_type_symbol
  _atom_site_label
  _atom_site_symmetry_multiplicity
  _atom_site_fract_x
  _atom_site_fract_y
  _atom_site_fract_z
  _atom_site_occupancy
  Pd  Pd1       1.0  0.64215  0.35785  0.50000  1.0000
  Pd  Pd2       1.0  0.50000  0.64215  0.35785  1.0000
  Pd  Pd3       1.0  0.35785  0.50000  0.64215  1.0000
  Pd  Pd4       1.0  0.14215  0.64215  0.28429  1.0000
  Pd  Pd5       1.0  0.71571  0.35785  0.85785  1.0000
  Pd  Pd6       1.0  0.14215  0.50000  0.85785  1.0000
  Pd  Pd7       1.0  0.35785  0.85785  0.71571  1.0000
  Pd  Pd8       1.0  0.50000  0.85785  0.14215  1.0000
  Pd  Pd9       1.0  0.64215  0.28429  0.14215  1.0000
  Pd  Pd10      1.0  0.85785  0.14215  0.50000  1.0000
  Pd  Pd11      1.0  0.28429  0.14215  0.64215  1.0000
  Pd  Pd12      1.0  0.85785  0.71571  0.35785  1.0000
  Se  Se1       1.0  0.62016  0.24032  0.62016  1.0000
  Se  Se2       1.0  0.62016  0.62016  0.24032  1.0000
  Se  Se3       1.0  0.24032  0.62016  0.62016  1.0000
  Se  Se4       1.0  0.37984  0.75968  0.37984  1.0000
  Se  Se5       1.0  0.75968  0.37984  0.37984  1.0000
  Se  Se6       1.0  0.37984  0.37984  0.75968  1.0000
  Se  Se7       1.0  0.62016  0.37984  0.00000  1.0000
  Se  Se8       1.0  0.00000  0.37984  0.62016  1.0000
  Se  Se9       1.0  0.00000  0.62016  0.37984  1.0000
  Se  Se10      1.0  0.37984  0.62016  0.00000  1.0000
  Se  Se11      1.0  0.37984  0.00000  0.62016  1.0000
  Se  Se12      1.0  0.62016  0.00000  0.37984  1.0000
  Se  Se13      1.0  0.50000  0.41303  0.58697  1.0000
  Se  Se14      1.0  0.58697  0.50000  0.41303  1.0000
  Se  Se15      1.0  0.41303  0.58697  0.50000  1.0000
  Se  Se16      1.0  0.17393  0.58697  0.08697  1.0000
  Se  Se17      1.0  0.91303  0.50000  0.08697  1.0000
  Se  Se18      1.0  0.91303  0.41303  0.82607  1.0000
  Se  Se19      1.0  0.50000  0.08697  0.91303  1.0000
  Se  Se20      1.0  0.41303  0.82607  0.91303  1.0000
  Se  Se21      1.0  0.58697  0.08697  0.17393  1.0000
  Se  Se22      1.0  0.82607  0.91303  0.41303  1.0000
  Se  Se23      1.0  0.08697  0.17393  0.58697  1.0000
  Se  Se24      1.0  0.08697  0.91303  0.50000  1.0000
