data_image0
_chemical_formula_structural       Pd2S36
_chemical_formula_sum              "Pd2 S36"
_cell_length_a       11.721
_cell_length_b       11.721
_cell_length_c       9.35395
_cell_angle_alpha    90
_cell_angle_beta     90
_cell_angle_gamma    120

_space_group_name_H-M_alt    "P 1"
_space_group_IT_number       1

loop_
  _space_group_symop_operation_xyz
  'x, y, z'

loop_
  _atom_site_type_symbol
  _atom_site_label
  _atom_site_symmetry_multiplicity
  _atom_site_fract_x
  _atom_site_fract_y
  _atom_site_fract_z
  _atom_site_occupancy
  Pd  Pd1       1.0  0.33333  0.66667  0.98651  1.0000
  Pd  Pd2       1.0  0.66667  0.33333  0.01349  1.0000
  S   S1        1.0  0.48654  0.27069  0.84533  1.0000
  S   S2        1.0  0.21585  0.48654  0.15467  1.0000
  S   S3        1.0  0.68424  0.50863  0.33769  1.0000
  S   S4        1.0  0.00836  0.59429  0.55371  1.0000
  S   S5        1.0  0.78415  0.51346  0.84533  1.0000
  S   S6        1.0  0.82706  0.80103  0.76357  1.0000
  S   S7        1.0  0.55413  0.13191  0.14563  1.0000
  S   S8        1.0  0.33564  0.09091  0.90771  1.0000
  S   S9        1.0  0.75527  0.66436  0.90771  1.0000
  S   S10       1.0  0.58593  0.99164  0.55371  1.0000
  S   S11       1.0  0.72931  0.21585  0.84533  1.0000
  S   S12       1.0  0.82438  0.31576  0.33769  1.0000
  S   S13       1.0  0.02603  0.82706  0.23643  1.0000
  S   S14       1.0  0.97397  0.17294  0.76357  1.0000
  S   S15       1.0  0.86809  0.42222  0.14563  1.0000
  S   S16       1.0  0.13191  0.57778  0.85437  1.0000
  S   S17       1.0  0.99164  0.40571  0.44629  1.0000
  S   S18       1.0  0.19897  0.02603  0.76357  1.0000
  S   S19       1.0  0.66436  0.90909  0.09229  1.0000
  S   S20       1.0  0.17562  0.68424  0.66231  1.0000
  S   S21       1.0  0.80103  0.97397  0.23643  1.0000
  S   S22       1.0  0.31576  0.49137  0.66231  1.0000
  S   S23       1.0  0.42222  0.55413  0.85437  1.0000
  S   S24       1.0  0.90909  0.24473  0.90771  1.0000
  S   S25       1.0  0.41407  0.00836  0.44629  1.0000
  S   S26       1.0  0.27069  0.78415  0.15467  1.0000
  S   S27       1.0  0.44587  0.86809  0.85437  1.0000
  S   S28       1.0  0.50863  0.82438  0.66231  1.0000
  S   S29       1.0  0.59429  0.58593  0.44629  1.0000
  S   S30       1.0  0.51346  0.72931  0.15467  1.0000
  S   S31       1.0  0.17294  0.19897  0.23643  1.0000
  S   S32       1.0  0.49137  0.17562  0.33769  1.0000
  S   S33       1.0  0.24473  0.33564  0.09229  1.0000
  S   S34       1.0  0.09091  0.75527  0.09229  1.0000
  S   S35       1.0  0.40571  0.41407  0.55371  1.0000
  S   S36       1.0  0.57778  0.44587  0.14563  1.0000
