data_image0
_chemical_formula_structural       Pd8Se12
_chemical_formula_sum              "Pd8 Se12"
_cell_length_a       9.05748
_cell_length_b       7.74137
_cell_length_c       8.61668
_cell_angle_alpha    66.995
_cell_angle_beta     51.8801
_cell_angle_gamma    61.1249

_space_group_name_H-M_alt    "P 1"
_space_group_IT_number       1

loop_
  _space_group_symop_operation_xyz
  'x, y, z'

loop_
  _atom_site_type_symbol
  _atom_site_label
  _atom_site_symmetry_multiplicity
  _atom_site_fract_x
  _atom_site_fract_y
  _atom_site_fract_z
  _atom_site_occupancy
  Pd  Pd1       1.0  0.37392  0.37392  0.12608  1.0000
  Pd  Pd2       1.0  0.12608  0.12608  0.37392  1.0000
  Pd  Pd3       1.0  0.62617  0.62617  0.37383  1.0000
  Pd  Pd4       1.0  0.37383  0.37383  0.62617  1.0000
  Pd  Pd5       1.0  0.87617  0.87617  0.62383  1.0000
  Pd  Pd6       1.0  0.12392  0.12392  0.87608  1.0000
  Pd  Pd7       1.0  0.87608  0.87608  0.12392  1.0000
  Pd  Pd8       1.0  0.62383  0.62383  0.87617  1.0000
  Se  Se1       1.0  0.06370  0.91322  0.72758  1.0000
  Se  Se2       1.0  0.59825  0.90175  0.59825  1.0000
  Se  Se3       1.0  0.34825  0.65175  0.34825  1.0000
  Se  Se4       1.0  0.33678  0.18630  0.95449  1.0000
  Se  Se5       1.0  0.65175  0.34825  0.65175  1.0000
  Se  Se6       1.0  0.29551  0.72758  0.91322  1.0000
  Se  Se7       1.0  0.95449  0.52242  0.33678  1.0000
  Se  Se8       1.0  0.90175  0.59825  0.90175  1.0000
  Se  Se9       1.0  0.72758  0.29551  0.06370  1.0000
  Se  Se10      1.0  0.18630  0.33678  0.52242  1.0000
  Se  Se11      1.0  0.91322  0.06370  0.29551  1.0000
  Se  Se12      1.0  0.52242  0.95449  0.18630  1.0000
