data_image0
_chemical_formula_structural       Pd2Se6
_chemical_formula_sum              "Pd2 Se6"
_cell_length_a       11.3835
_cell_length_b       11.3835
_cell_length_c       11.3835
_cell_angle_alpha    101.039
_cell_angle_beta     101.039
_cell_angle_gamma    128.1

_space_group_name_H-M_alt    "P 1"
_space_group_IT_number       1

loop_
  _space_group_symop_operation_xyz
  'x, y, z'

loop_
  _atom_site_type_symbol
  _atom_site_label
  _atom_site_symmetry_multiplicity
  _atom_site_fract_x
  _atom_site_fract_y
  _atom_site_fract_z
  _atom_site_occupancy
  Pd  Pd1       1.0  0.50000  0.50000  0.00000  1.0000
  Pd  Pd2       1.0  0.00000  0.00000  0.00000  1.0000
  Se  Se1       1.0  0.74499  0.75501  0.50000  1.0000
  Se  Se2       1.0  0.25501  0.24499  0.50000  1.0000
  Se  Se3       1.0  0.24499  0.74499  0.98998  1.0000
  Se  Se4       1.0  0.75000  0.75000  0.00000  1.0000
  Se  Se5       1.0  0.25000  0.25000  0.00000  1.0000
  Se  Se6       1.0  0.75501  0.25501  0.01002  1.0000
