data_image0
_chemical_formula_structural       Pd10Se17
_chemical_formula_sum              "Pd10 Se17"
_cell_length_a       11.5276
_cell_length_b       11.5276
_cell_length_c       11.5276
_cell_angle_alpha    136.668
_cell_angle_beta     146.045
_cell_angle_gamma    56.1605

_space_group_name_H-M_alt    "P 1"
_space_group_IT_number       1

loop_
  _space_group_symop_operation_xyz
  'x, y, z'

loop_
  _atom_site_type_symbol
  _atom_site_label
  _atom_site_symmetry_multiplicity
  _atom_site_fract_x
  _atom_site_fract_y
  _atom_site_fract_z
  _atom_site_occupancy
  Pd  Pd1       1.0  0.02963  0.52518  0.02705  1.0000
  Pd  Pd2       1.0  0.32578  0.28618  0.47178  1.0000
  Pd  Pd3       1.0  0.18560  0.14600  0.47178  1.0000
  Pd  Pd4       1.0  0.50187  0.99742  0.02705  1.0000
  Pd  Pd5       1.0  0.67422  0.14600  0.96040  1.0000
  Pd  Pd6       1.0  0.97037  0.99742  0.49555  1.0000
  Pd  Pd7       1.0  0.81440  0.28618  0.96040  1.0000
  Pd  Pd8       1.0  0.49813  0.52518  0.49555  1.0000
  Pd  Pd9       1.0  0.29883  0.66491  0.96374  1.0000
  Pd  Pd10      1.0  0.70117  0.66491  0.36608  1.0000
  Se  Se1       1.0  0.83642  0.49116  0.65474  1.0000
  Se  Se2       1.0  0.10746  0.12588  0.01842  1.0000
  Se  Se3       1.0  0.82117  0.19342  0.37225  1.0000
  Se  Se4       1.0  0.32542  0.00331  0.67789  1.0000
  Se  Se5       1.0  0.37920  0.59411  0.21490  1.0000
  Se  Se6       1.0  0.89254  0.91096  0.01842  1.0000
  Se  Se7       1.0  0.16358  0.81832  0.65474  1.0000
  Se  Se8       1.0  0.17883  0.55108  0.37225  1.0000
  Se  Se9       1.0  0.67458  0.35247  0.67789  1.0000
  Se  Se10      1.0  0.00000  0.37283  0.37283  1.0000
  Se  Se11      1.0  0.76150  0.76906  0.00756  1.0000
  Se  Se12      1.0  0.62080  0.83570  0.21490  1.0000
  Se  Se13      1.0  0.00000  0.82775  0.82775  1.0000
  Se  Se14      1.0  0.50000  0.39125  0.89125  1.0000
  Se  Se15      1.0  0.23850  0.24606  0.00756  1.0000
  Se  Se16      1.0  0.56973  0.05283  0.48310  1.0000
  Se  Se17      1.0  0.43027  0.91337  0.48310  1.0000
