data_image0
_chemical_formula_structural       Pd16Tl24
_chemical_formula_sum              "Pd16 Tl24"
_cell_length_a       14.1416
_cell_length_b       14.1416
_cell_length_c       14.1416
_cell_angle_alpha    144.572
_cell_angle_beta     144.572
_cell_angle_gamma    50.973

_space_group_name_H-M_alt    "P 1"
_space_group_IT_number       1

loop_
  _space_group_symop_operation_xyz
  'x, y, z'

loop_
  _atom_site_type_symbol
  _atom_site_label
  _atom_site_symmetry_multiplicity
  _atom_site_fract_x
  _atom_site_fract_y
  _atom_site_fract_z
  _atom_site_occupancy
  Pd  Pd1       1.0  0.86114  0.95143  0.39197  1.0000
  Pd  Pd2       1.0  0.16618  0.16618  0.00000  1.0000
  Pd  Pd3       1.0  0.87500  0.51870  0.14370  1.0000
  Pd  Pd4       1.0  0.19054  0.29857  0.40971  1.0000
  Pd  Pd5       1.0  0.58382  0.08382  0.50000  1.0000
  Pd  Pd6       1.0  0.88886  0.78083  0.59029  1.0000
  Pd  Pd7       1.0  0.37500  0.73130  0.85630  1.0000
  Pd  Pd8       1.0  0.21917  0.80946  0.10803  1.0000
  Pd  Pd9       1.0  0.91618  0.41618  0.50000  1.0000
  Pd  Pd10      1.0  0.48130  0.62500  0.35630  1.0000
  Pd  Pd11      1.0  0.70143  0.11114  0.89197  1.0000
  Pd  Pd12      1.0  0.26870  0.12500  0.64370  1.0000
  Pd  Pd13      1.0  0.83382  0.83382  0.00000  1.0000
  Pd  Pd14      1.0  0.53083  0.13886  0.09029  1.0000
  Pd  Pd15      1.0  0.04857  0.44054  0.90971  1.0000
  Pd  Pd16      1.0  0.55946  0.46917  0.60803  1.0000
  Tl  Tl1       1.0  0.50960  0.11512  0.25602  1.0000
  Tl  Tl2       1.0  0.08054  0.82714  0.61435  1.0000
  Tl  Tl3       1.0  0.85910  0.25358  0.74398  1.0000
  Tl  Tl4       1.0  0.89090  0.13488  0.89448  1.0000
  Tl  Tl5       1.0  0.24040  0.99642  0.10552  1.0000
  Tl  Tl6       1.0  0.21278  0.46619  0.38565  1.0000
  Tl  Tl7       1.0  0.84099  0.44040  0.24730  1.0000
  Tl  Tl8       1.0  0.53722  0.42286  0.75340  1.0000
  Tl  Tl9       1.0  0.40631  0.15901  0.59941  1.0000
  Tl  Tl10      1.0  0.19310  0.59369  0.75270  1.0000
  Tl  Tl11      1.0  0.66946  0.78381  0.24660  1.0000
  Tl  Tl12      1.0  0.21619  0.46278  0.88565  1.0000
  Tl  Tl13      1.0  0.57714  0.33054  0.11435  1.0000
  Tl  Tl14      1.0  0.55960  0.80690  0.40059  1.0000
  Tl  Tl15      1.0  0.17286  0.78722  0.25340  1.0000
  Tl  Tl16      1.0  0.86512  0.75960  0.75602  1.0000
  Tl  Tl17      1.0  0.74642  0.49040  0.60552  1.0000
  Tl  Tl18      1.0  0.53381  0.91946  0.74660  1.0000
  Tl  Tl19      1.0  0.00358  0.10910  0.24398  1.0000
  Tl  Tl20      1.0  0.55690  0.80960  0.90059  1.0000
  Tl  Tl21      1.0  0.90901  0.65631  0.09941  1.0000
  Tl  Tl22      1.0  0.88488  0.14090  0.39448  1.0000
  Tl  Tl23      1.0  0.19040  0.09099  0.74730  1.0000
  Tl  Tl24      1.0  0.34369  0.44310  0.25270  1.0000
