data_image0
_chemical_formula_structural       Tl4Pd2
_chemical_formula_sum              "Tl4 Pd2"
_cell_length_a       3.54902
_cell_length_b       6.63325
_cell_length_c       7.54438
_cell_angle_alpha    118.304
_cell_angle_beta     104.888
_cell_angle_gamma    89.8137

_space_group_name_H-M_alt    "P 1"
_space_group_IT_number       1

loop_
  _space_group_symop_operation_xyz
  'x, y, z'

loop_
  _atom_site_type_symbol
  _atom_site_label
  _atom_site_symmetry_multiplicity
  _atom_site_fract_x
  _atom_site_fract_y
  _atom_site_fract_z
  _atom_site_occupancy
  Tl  Tl1       1.0  0.80063  0.81741  0.57362  1.0000
  Tl  Tl2       1.0  0.54451  0.27986  0.08023  1.0000
  Tl  Tl3       1.0  0.19937  0.18259  0.42638  1.0000
  Tl  Tl4       1.0  0.45549  0.72014  0.91977  1.0000
  Pd  Pd1       1.0  0.88545  0.31928  0.78091  1.0000
  Pd  Pd2       1.0  0.11455  0.68072  0.21909  1.0000
