data_image0
_chemical_formula_structural       Tl24Pd14
_chemical_formula_sum              "Tl24 Pd14"
_cell_length_a       11.2805
_cell_length_b       8.40099
_cell_length_c       11.25
_cell_angle_alpha    57.181
_cell_angle_beta     90
_cell_angle_gamma    90

_space_group_name_H-M_alt    "P 1"
_space_group_IT_number       1

loop_
  _space_group_symop_operation_xyz
  'x, y, z'

loop_
  _atom_site_type_symbol
  _atom_site_label
  _atom_site_symmetry_multiplicity
  _atom_site_fract_x
  _atom_site_fract_y
  _atom_site_fract_z
  _atom_site_occupancy
  Tl  Tl1       1.0  0.83996  0.50397  0.65809  1.0000
  Tl  Tl2       1.0  0.49936  0.86156  0.85372  1.0000
  Tl  Tl3       1.0  0.66004  0.50397  0.15809  1.0000
  Tl  Tl4       1.0  0.80017  0.75146  0.83289  1.0000
  Tl  Tl5       1.0  0.57213  0.77470  0.58605  1.0000
  Tl  Tl6       1.0  0.92375  0.26986  0.29457  1.0000
  Tl  Tl7       1.0  0.57625  0.26986  0.79457  1.0000
  Tl  Tl8       1.0  0.29828  0.77166  0.46204  1.0000
  Tl  Tl9       1.0  0.30017  0.24854  0.66711  1.0000
  Tl  Tl10      1.0  0.42375  0.73014  0.20543  1.0000
  Tl  Tl11      1.0  0.42787  0.22530  0.41395  1.0000
  Tl  Tl12      1.0  0.50064  0.13844  0.14628  1.0000
  Tl  Tl13      1.0  0.33996  0.49603  0.84191  1.0000
  Tl  Tl14      1.0  0.00064  0.86156  0.35372  1.0000
  Tl  Tl15      1.0  0.07625  0.73014  0.70543  1.0000
  Tl  Tl16      1.0  0.92787  0.77470  0.08605  1.0000
  Tl  Tl17      1.0  0.20172  0.77166  0.96204  1.0000
  Tl  Tl18      1.0  0.79828  0.22834  0.03796  1.0000
  Tl  Tl19      1.0  0.70172  0.22834  0.53796  1.0000
  Tl  Tl20      1.0  0.99936  0.13844  0.64628  1.0000
  Tl  Tl21      1.0  0.69983  0.75146  0.33289  1.0000
  Tl  Tl22      1.0  0.19983  0.24854  0.16711  1.0000
  Tl  Tl23      1.0  0.16004  0.49603  0.34191  1.0000
  Tl  Tl24      1.0  0.07213  0.22530  0.91395  1.0000
  Pd  Pd1       1.0  0.50000  0.50000  0.50000  1.0000
  Pd  Pd2       1.0  0.35089  0.09664  0.95935  1.0000
  Pd  Pd3       1.0  0.17759  0.89784  0.16672  1.0000
  Pd  Pd4       1.0  0.85089  0.90336  0.54065  1.0000
  Pd  Pd5       1.0  0.40428  0.48787  0.09923  1.0000
  Pd  Pd6       1.0  0.09572  0.48787  0.59923  1.0000
  Pd  Pd7       1.0  0.64911  0.90336  0.04065  1.0000
  Pd  Pd8       1.0  0.59572  0.51213  0.90077  1.0000
  Pd  Pd9       1.0  0.00000  0.50000  0.00000  1.0000
  Pd  Pd10      1.0  0.67759  0.10216  0.33328  1.0000
  Pd  Pd11      1.0  0.14911  0.09664  0.45935  1.0000
  Pd  Pd12      1.0  0.32241  0.89784  0.66672  1.0000
  Pd  Pd13      1.0  0.90428  0.51213  0.40077  1.0000
  Pd  Pd14      1.0  0.82241  0.10216  0.83328  1.0000
