data_image0
_chemical_formula_structural       Pd10Tl12
_chemical_formula_sum              "Pd10 Tl12"
_cell_length_a       7.04662
_cell_length_b       8.56168
_cell_length_c       9.27868
_cell_angle_alpha    89.7556
_cell_angle_beta     92.8084
_cell_angle_gamma    107.706

_space_group_name_H-M_alt    "P 1"
_space_group_IT_number       1

loop_
  _space_group_symop_operation_xyz
  'x, y, z'

loop_
  _atom_site_type_symbol
  _atom_site_label
  _atom_site_symmetry_multiplicity
  _atom_site_fract_x
  _atom_site_fract_y
  _atom_site_fract_z
  _atom_site_occupancy
  Pd  Pd1       1.0  0.66507  0.41899  0.16780  1.0000
  Pd  Pd2       1.0  0.99620  0.74982  0.49900  1.0000
  Pd  Pd3       1.0  0.33114  0.08879  0.83025  1.0000
  Pd  Pd4       1.0  0.66886  0.91121  0.16975  1.0000
  Pd  Pd5       1.0  0.00380  0.25018  0.50100  1.0000
  Pd  Pd6       1.0  0.33493  0.58101  0.83220  1.0000
  Pd  Pd7       1.0  0.00000  0.50000  0.00000  1.0000
  Pd  Pd8       1.0  0.33596  0.83156  0.33753  1.0000
  Pd  Pd9       1.0  0.66404  0.16844  0.66247  1.0000
  Pd  Pd10      1.0  0.00000  0.00000  0.00000  1.0000
  Tl  Tl1       1.0  0.71965  0.67982  0.96107  1.0000
  Tl  Tl2       1.0  0.06453  0.02375  0.30614  1.0000
  Tl  Tl3       1.0  0.39292  0.35611  0.63066  1.0000
  Tl  Tl4       1.0  0.60708  0.64389  0.36934  1.0000
  Tl  Tl5       1.0  0.93547  0.97625  0.69386  1.0000
  Tl  Tl6       1.0  0.28035  0.32018  0.03893  1.0000
  Tl  Tl7       1.0  0.72011  0.17867  0.97070  1.0000
  Tl  Tl8       1.0  0.05868  0.50898  0.30698  1.0000
  Tl  Tl9       1.0  0.39079  0.84392  0.64252  1.0000
  Tl  Tl10      1.0  0.60921  0.15608  0.35748  1.0000
  Tl  Tl11      1.0  0.94132  0.49102  0.69302  1.0000
  Tl  Tl12      1.0  0.27989  0.82133  0.02930  1.0000
