data_image0
_chemical_formula_structural       Pd3Tl9
_chemical_formula_sum              "Pd3 Tl9"
_cell_length_a       6.24448
_cell_length_b       6.24448
_cell_length_c       10.4796
_cell_angle_alpha    89.4516
_cell_angle_beta     89.4516
_cell_angle_gamma    60.0969

_space_group_name_H-M_alt    "P 1"
_space_group_IT_number       1

loop_
  _space_group_symop_operation_xyz
  'x, y, z'

loop_
  _atom_site_type_symbol
  _atom_site_label
  _atom_site_symmetry_multiplicity
  _atom_site_fract_x
  _atom_site_fract_y
  _atom_site_fract_z
  _atom_site_occupancy
  Pd  Pd1       1.0  0.33888  0.33005  0.33434  1.0000
  Pd  Pd2       1.0  0.00112  0.99888  0.00000  1.0000
  Pd  Pd3       1.0  0.66995  0.66112  0.66566  1.0000
  Tl  Tl1       1.0  0.01572  0.64598  0.83416  1.0000
  Tl  Tl2       1.0  0.00626  0.30045  0.50228  1.0000
  Tl  Tl3       1.0  0.32077  0.02682  0.82060  1.0000
  Tl  Tl4       1.0  0.63648  0.32592  0.82821  1.0000
  Tl  Tl5       1.0  0.35402  0.98428  0.16584  1.0000
  Tl  Tl6       1.0  0.30990  0.69010  0.50000  1.0000
  Tl  Tl7       1.0  0.69955  0.99374  0.49772  1.0000
  Tl  Tl8       1.0  0.97318  0.67923  0.17940  1.0000
  Tl  Tl9       1.0  0.67408  0.36352  0.17179  1.0000
