data_image0
_chemical_formula_structural       Pd12Se24
_chemical_formula_sum              "Pd12 Se24"
_cell_length_a       8.74481
_cell_length_b       8.74481
_cell_length_c       11.8722
_cell_angle_alpha    90
_cell_angle_beta     90
_cell_angle_gamma    94.5154

_space_group_name_H-M_alt    "P 1"
_space_group_IT_number       1

loop_
  _space_group_symop_operation_xyz
  'x, y, z'

loop_
  _atom_site_type_symbol
  _atom_site_label
  _atom_site_symmetry_multiplicity
  _atom_site_fract_x
  _atom_site_fract_y
  _atom_site_fract_z
  _atom_site_occupancy
  Pd  Pd1       1.0  0.07243  0.07243  0.82622  1.0000
  Pd  Pd2       1.0  0.42757  0.42757  0.32622  1.0000
  Pd  Pd3       1.0  0.57243  0.57243  0.67378  1.0000
  Pd  Pd4       1.0  0.92757  0.92757  0.17378  1.0000
  Pd  Pd5       1.0  0.82580  0.82580  0.93072  1.0000
  Pd  Pd6       1.0  0.67420  0.67420  0.43072  1.0000
  Pd  Pd7       1.0  0.32580  0.32580  0.56928  1.0000
  Pd  Pd8       1.0  0.17420  0.17420  0.06928  1.0000
  Pd  Pd9       1.0  0.32490  0.67510  0.50000  1.0000
  Pd  Pd10      1.0  0.17510  0.82490  0.00000  1.0000
  Pd  Pd11      1.0  0.67510  0.32490  0.50000  1.0000
  Pd  Pd12      1.0  0.82490  0.17510  0.00000  1.0000
  Se  Se1       1.0  0.62105  0.62105  0.87942  1.0000
  Se  Se2       1.0  0.87895  0.87895  0.37942  1.0000
  Se  Se3       1.0  0.12105  0.12105  0.62058  1.0000
  Se  Se4       1.0  0.37895  0.37895  0.12058  1.0000
  Se  Se5       1.0  0.12712  0.87288  0.50000  1.0000
  Se  Se6       1.0  0.37288  0.62712  0.00000  1.0000
  Se  Se7       1.0  0.87288  0.12712  0.50000  1.0000
  Se  Se8       1.0  0.62712  0.37288  0.00000  1.0000
  Se  Se9       1.0  0.32820  0.05368  0.91908  1.0000
  Se  Se10      1.0  0.17180  0.44632  0.41908  1.0000
  Se  Se11      1.0  0.55368  0.82820  0.58092  1.0000
  Se  Se12      1.0  0.94632  0.67180  0.08092  1.0000
  Se  Se13      1.0  0.94601  0.21455  0.19043  1.0000
  Se  Se14      1.0  0.55399  0.28545  0.69043  1.0000
  Se  Se15      1.0  0.71455  0.44601  0.30957  1.0000
  Se  Se16      1.0  0.78545  0.05399  0.80957  1.0000
  Se  Se17      1.0  0.05399  0.78545  0.80957  1.0000
  Se  Se18      1.0  0.44601  0.71455  0.30957  1.0000
  Se  Se19      1.0  0.28545  0.55399  0.69043  1.0000
  Se  Se20      1.0  0.21455  0.94601  0.19043  1.0000
  Se  Se21      1.0  0.05368  0.32820  0.91908  1.0000
  Se  Se22      1.0  0.44632  0.17180  0.41908  1.0000
  Se  Se23      1.0  0.82820  0.55368  0.58092  1.0000
  Se  Se24      1.0  0.67180  0.94632  0.08092  1.0000
