data_image0
_chemical_formula_structural       Se4Pd4
_chemical_formula_sum              "Se4 Pd4"
_cell_length_a       8.05863
_cell_length_b       6.16323
_cell_length_c       4.67687
_cell_angle_alpha    90
_cell_angle_beta     90
_cell_angle_gamma    90

_space_group_name_H-M_alt    "P 1"
_space_group_IT_number       1

loop_
  _space_group_symop_operation_xyz
  'x, y, z'

loop_
  _atom_site_type_symbol
  _atom_site_label
  _atom_site_symmetry_multiplicity
  _atom_site_fract_x
  _atom_site_fract_y
  _atom_site_fract_z
  _atom_site_occupancy
  Se  Se1       1.0  0.62111  0.77953  0.11651  1.0000
  Se  Se2       1.0  0.37889  0.22047  0.61651  1.0000
  Se  Se3       1.0  0.87889  0.77953  0.61651  1.0000
  Se  Se4       1.0  0.12111  0.22047  0.11651  1.0000
  Pd  Pd1       1.0  0.58673  0.92216  0.61661  1.0000
  Pd  Pd2       1.0  0.41327  0.07784  0.11661  1.0000
  Pd  Pd3       1.0  0.91327  0.92216  0.11661  1.0000
  Pd  Pd4       1.0  0.08673  0.07784  0.61661  1.0000
