data_image0
_chemical_formula_structural       Tl8Pd4
_chemical_formula_sum              "Tl8 Pd4"
_cell_length_a       5.7286
_cell_length_b       5.7286
_cell_length_c       9.29388
_cell_angle_alpha    89.0029
_cell_angle_beta     89.0029
_cell_angle_gamma    79.3064

_space_group_name_H-M_alt    "P 1"
_space_group_IT_number       1

loop_
  _space_group_symop_operation_xyz
  'x, y, z'

loop_
  _atom_site_type_symbol
  _atom_site_label
  _atom_site_symmetry_multiplicity
  _atom_site_fract_x
  _atom_site_fract_y
  _atom_site_fract_z
  _atom_site_occupancy
  Tl  Tl1       1.0  0.50000  0.00000  0.50000  1.0000
  Tl  Tl2       1.0  0.00000  0.50000  0.50000  1.0000
  Tl  Tl3       1.0  0.23979  0.74363  0.77854  1.0000
  Tl  Tl4       1.0  0.76021  0.25637  0.22146  1.0000
  Tl  Tl5       1.0  0.25637  0.76021  0.22146  1.0000
  Tl  Tl6       1.0  0.74363  0.23979  0.77854  1.0000
  Tl  Tl7       1.0  0.23783  0.23783  0.96360  1.0000
  Tl  Tl8       1.0  0.76217  0.76217  0.03640  1.0000
  Pd  Pd1       1.0  0.26191  0.26191  0.27078  1.0000
  Pd  Pd2       1.0  0.73809  0.73809  0.72922  1.0000
  Pd  Pd3       1.0  0.00000  0.00000  0.50000  1.0000
  Pd  Pd4       1.0  0.50000  0.50000  0.50000  1.0000
