data_image0
_chemical_formula_structural       Pd5Se8
_chemical_formula_sum              "Pd5 Se8"
_cell_length_a       7.64503
_cell_length_b       7.64503
_cell_length_c       8.48048
_cell_angle_alpha    48.4327
_cell_angle_beta     48.4327
_cell_angle_gamma    59.4624

_space_group_name_H-M_alt    "P 1"
_space_group_IT_number       1

loop_
  _space_group_symop_operation_xyz
  'x, y, z'

loop_
  _atom_site_type_symbol
  _atom_site_label
  _atom_site_symmetry_multiplicity
  _atom_site_fract_x
  _atom_site_fract_y
  _atom_site_fract_z
  _atom_site_occupancy
  Pd  Pd1       1.0  0.00000  0.00000  0.00000  1.0000
  Pd  Pd2       1.0  0.73745  0.26255  0.50000  1.0000
  Pd  Pd3       1.0  0.26255  0.73745  0.50000  1.0000
  Pd  Pd4       1.0  0.26985  0.26985  0.46996  1.0000
  Pd  Pd5       1.0  0.73015  0.73015  0.53004  1.0000
  Se  Se1       1.0  0.01725  0.01725  0.28772  1.0000
  Se  Se2       1.0  0.98275  0.98275  0.71228  1.0000
  Se  Se3       1.0  0.54661  0.54661  0.23658  1.0000
  Se  Se4       1.0  0.45339  0.45339  0.76342  1.0000
  Se  Se5       1.0  0.03572  0.53941  0.25158  1.0000
  Se  Se6       1.0  0.46059  0.96428  0.74842  1.0000
  Se  Se7       1.0  0.53941  0.03572  0.25158  1.0000
  Se  Se8       1.0  0.96428  0.46059  0.74842  1.0000
