data_image0
_chemical_formula_structural       PdSe28
_chemical_formula_sum              "Pd1 Se28"
_cell_length_a       10.993
_cell_length_b       10.993
_cell_length_c       10.993
_cell_angle_alpha    109.471
_cell_angle_beta     109.471
_cell_angle_gamma    109.471

_space_group_name_H-M_alt    "P 1"
_space_group_IT_number       1

loop_
  _space_group_symop_operation_xyz
  'x, y, z'

loop_
  _atom_site_type_symbol
  _atom_site_label
  _atom_site_symmetry_multiplicity
  _atom_site_fract_x
  _atom_site_fract_y
  _atom_site_fract_z
  _atom_site_occupancy
  Pd  Pd1       1.0  0.00000  0.00000  0.00000  1.0000
  Se  Se1       1.0  0.50517  0.00000  0.00000  1.0000
  Se  Se2       1.0  0.00000  0.50517  0.00000  1.0000
  Se  Se3       1.0  0.00000  0.00000  0.50517  1.0000
  Se  Se4       1.0  0.49483  0.49483  0.49483  1.0000
  Se  Se5       1.0  0.57107  0.76226  0.00000  1.0000
  Se  Se6       1.0  0.80881  0.23774  0.23774  1.0000
  Se  Se7       1.0  0.57107  0.00000  0.76226  1.0000
  Se  Se8       1.0  0.76226  0.57107  0.00000  1.0000
  Se  Se9       1.0  0.00000  0.57107  0.76226  1.0000
  Se  Se10      1.0  0.23774  0.80881  0.23774  1.0000
  Se  Se11      1.0  0.23774  0.23774  0.80881  1.0000
  Se  Se12      1.0  0.00000  0.76226  0.57107  1.0000
  Se  Se13      1.0  0.76226  0.00000  0.57107  1.0000
  Se  Se14      1.0  0.42893  0.42893  0.19119  1.0000
  Se  Se15      1.0  0.19119  0.42893  0.42893  1.0000
  Se  Se16      1.0  0.42893  0.19119  0.42893  1.0000
  Se  Se17      1.0  0.43582  0.23711  0.00000  1.0000
  Se  Se18      1.0  0.19871  0.76289  0.76289  1.0000
  Se  Se19      1.0  0.43582  0.00000  0.23711  1.0000
  Se  Se20      1.0  0.23711  0.43582  0.00000  1.0000
  Se  Se21      1.0  1.00000  0.43582  0.23711  1.0000
  Se  Se22      1.0  0.76289  0.19871  0.76289  1.0000
  Se  Se23      1.0  0.76289  0.76289  0.19871  1.0000
  Se  Se24      1.0  0.00000  0.23711  0.43582  1.0000
  Se  Se25      1.0  0.23711  0.00000  0.43582  1.0000
  Se  Se26      1.0  0.56418  0.56418  0.80129  1.0000
  Se  Se27      1.0  0.80129  0.56418  0.56418  1.0000
  Se  Se28      1.0  0.56418  0.80129  0.56418  1.0000
