data_image0
_chemical_formula_structural       PdSe3
_chemical_formula_sum              "Pd1 Se3"
_cell_length_a       4.87631
_cell_length_b       4.87631
_cell_length_c       4.87631
_cell_angle_alpha    95.9183
_cell_angle_beta     95.9183
_cell_angle_gamma    95.9183

_space_group_name_H-M_alt    "P 1"
_space_group_IT_number       1

loop_
  _space_group_symop_operation_xyz
  'x, y, z'

loop_
  _atom_site_type_symbol
  _atom_site_label
  _atom_site_symmetry_multiplicity
  _atom_site_fract_x
  _atom_site_fract_y
  _atom_site_fract_z
  _atom_site_occupancy
  Pd  Pd1       1.0  0.00000  0.00000  0.00000  1.0000
  Se  Se1       1.0  0.12107  0.50000  0.87893  1.0000
  Se  Se2       1.0  0.87893  0.12107  0.50000  1.0000
  Se  Se3       1.0  0.50000  0.87893  0.12107  1.0000
