data_image0
_chemical_formula_structural       Tl3Pd3
_chemical_formula_sum              "Tl3 Pd3"
_cell_length_a       4.33356
_cell_length_b       4.33356
_cell_length_c       9.76994
_cell_angle_alpha    90
_cell_angle_beta     90
_cell_angle_gamma    120

_space_group_name_H-M_alt    "P 1"
_space_group_IT_number       1

loop_
  _space_group_symop_operation_xyz
  'x, y, z'

loop_
  _atom_site_type_symbol
  _atom_site_label
  _atom_site_symmetry_multiplicity
  _atom_site_fract_x
  _atom_site_fract_y
  _atom_site_fract_z
  _atom_site_occupancy
  Tl  Tl1       1.0  0.50688  0.00000  0.33333  1.0000
  Tl  Tl2       1.0  0.00000  0.50688  0.66667  1.0000
  Tl  Tl3       1.0  0.49312  0.49312  0.00000  1.0000
  Pd  Pd1       1.0  0.50474  1.00000  0.83333  1.0000
  Pd  Pd2       1.0  1.00000  0.50474  0.16667  1.0000
  Pd  Pd3       1.0  0.49526  0.49526  0.50000  1.0000
