data_image0
_chemical_formula_structural       Tl41Pd4
_chemical_formula_sum              "Tl41 Pd4"
_cell_length_a       12.4473
_cell_length_b       12.4473
_cell_length_c       12.4473
_cell_angle_alpha    60
_cell_angle_beta     60
_cell_angle_gamma    60

_space_group_name_H-M_alt    "P 1"
_space_group_IT_number       1

loop_
  _space_group_symop_operation_xyz
  'x, y, z'

loop_
  _atom_site_type_symbol
  _atom_site_label
  _atom_site_symmetry_multiplicity
  _atom_site_fract_x
  _atom_site_fract_y
  _atom_site_fract_z
  _atom_site_occupancy
  Tl  Tl1       1.0  0.37652  0.87449  0.87449  1.0000
  Tl  Tl2       1.0  0.87449  0.37652  0.87449  1.0000
  Tl  Tl3       1.0  0.87449  0.87449  0.37652  1.0000
  Tl  Tl4       1.0  0.87449  0.87449  0.87449  1.0000
  Tl  Tl5       1.0  0.81852  0.54957  0.54957  1.0000
  Tl  Tl6       1.0  0.54957  0.81852  0.08233  1.0000
  Tl  Tl7       1.0  0.54957  0.08233  0.81852  1.0000
  Tl  Tl8       1.0  0.08233  0.54957  0.54957  1.0000
  Tl  Tl9       1.0  0.54957  0.54957  0.81852  1.0000
  Tl  Tl10      1.0  0.81852  0.08233  0.54957  1.0000
  Tl  Tl11      1.0  0.08233  0.81852  0.54957  1.0000
  Tl  Tl12      1.0  0.54957  0.54957  0.08233  1.0000
  Tl  Tl13      1.0  0.54957  0.81852  0.54957  1.0000
  Tl  Tl14      1.0  0.08233  0.54957  0.81852  1.0000
  Tl  Tl15      1.0  0.81852  0.54957  0.08233  1.0000
  Tl  Tl16      1.0  0.54957  0.08233  0.54957  1.0000
  Tl  Tl17      1.0  0.93139  0.20019  0.20019  1.0000
  Tl  Tl18      1.0  0.20019  0.93139  0.66822  1.0000
  Tl  Tl19      1.0  0.20019  0.66822  0.93139  1.0000
  Tl  Tl20      1.0  0.66822  0.20019  0.20019  1.0000
  Tl  Tl21      1.0  0.20019  0.20019  0.93139  1.0000
  Tl  Tl22      1.0  0.93139  0.66822  0.20019  1.0000
  Tl  Tl23      1.0  0.66822  0.93139  0.20019  1.0000
  Tl  Tl24      1.0  0.20019  0.20019  0.66822  1.0000
  Tl  Tl25      1.0  0.20019  0.93139  0.20019  1.0000
  Tl  Tl26      1.0  0.66822  0.20019  0.93139  1.0000
  Tl  Tl27      1.0  0.93139  0.20019  0.66822  1.0000
  Tl  Tl28      1.0  0.20019  0.66822  0.20019  1.0000
  Tl  Tl29      1.0  0.11356  0.11356  0.38644  1.0000
  Tl  Tl30      1.0  0.38644  0.38644  0.11356  1.0000
  Tl  Tl31      1.0  0.11356  0.38644  0.11356  1.0000
  Tl  Tl32      1.0  0.38644  0.11356  0.38644  1.0000
  Tl  Tl33      1.0  0.38644  0.11356  0.11356  1.0000
  Tl  Tl34      1.0  0.11356  0.38644  0.38644  1.0000
  Tl  Tl35      1.0  0.63668  0.63668  0.36332  1.0000
  Tl  Tl36      1.0  0.36332  0.36332  0.63668  1.0000
  Tl  Tl37      1.0  0.63668  0.36332  0.63668  1.0000
  Tl  Tl38      1.0  0.36332  0.63668  0.36332  1.0000
  Tl  Tl39      1.0  0.36332  0.63668  0.63668  1.0000
  Tl  Tl40      1.0  0.63668  0.36332  0.36332  1.0000
  Tl  Tl41      1.0  0.75000  0.75000  0.75000  1.0000
  Pd  Pd1       1.0  0.87605  0.37465  0.37465  1.0000
  Pd  Pd2       1.0  0.37465  0.87605  0.37465  1.0000
  Pd  Pd3       1.0  0.37465  0.37465  0.87605  1.0000
  Pd  Pd4       1.0  0.37465  0.37465  0.37465  1.0000
