data_image0
_chemical_formula_structural       Se20Pd18
_chemical_formula_sum              "Se20 Pd18"
_cell_length_a       9.91037
_cell_length_b       9.91037
_cell_length_c       12.4568
_cell_angle_alpha    63.5508
_cell_angle_beta     63.5508
_cell_angle_gamma    44.427

_space_group_name_H-M_alt    "P 1"
_space_group_IT_number       1

loop_
  _space_group_symop_operation_xyz
  'x, y, z'

loop_
  _atom_site_type_symbol
  _atom_site_label
  _atom_site_symmetry_multiplicity
  _atom_site_fract_x
  _atom_site_fract_y
  _atom_site_fract_z
  _atom_site_occupancy
  Se  Se1       1.0  0.22084  0.46820  0.96490  1.0000
  Se  Se2       1.0  0.71480  0.96447  0.96620  1.0000
  Se  Se3       1.0  0.54381  0.33781  0.65271  1.0000
  Se  Se4       1.0  0.45619  0.66219  0.34729  1.0000
  Se  Se5       1.0  0.28520  0.03553  0.03380  1.0000
  Se  Se6       1.0  0.09081  0.80194  0.64621  1.0000
  Se  Se7       1.0  0.11816  0.37016  0.76197  1.0000
  Se  Se8       1.0  0.90919  0.19806  0.35379  1.0000
  Se  Se9       1.0  0.96447  0.71480  0.46620  1.0000
  Se  Se10      1.0  0.77916  0.53180  0.03510  1.0000
  Se  Se11      1.0  0.62984  0.88184  0.73803  1.0000
  Se  Se12      1.0  0.80194  0.09081  0.14621  1.0000
  Se  Se13      1.0  0.46820  0.22084  0.46490  1.0000
  Se  Se14      1.0  0.66219  0.45619  0.84729  1.0000
  Se  Se15      1.0  0.53180  0.77916  0.53510  1.0000
  Se  Se16      1.0  0.33781  0.54381  0.15271  1.0000
  Se  Se17      1.0  0.37016  0.11816  0.26197  1.0000
  Se  Se18      1.0  0.19806  0.90919  0.85379  1.0000
  Se  Se19      1.0  0.03553  0.28520  0.53380  1.0000
  Se  Se20      1.0  0.88184  0.62984  0.23803  1.0000
  Pd  Pd1       1.0  0.07511  0.31796  0.15406  1.0000
  Pd  Pd2       1.0  0.92489  0.68204  0.84594  1.0000
  Pd  Pd3       1.0  0.56956  0.82338  0.15302  1.0000
  Pd  Pd4       1.0  0.78144  0.02665  0.54838  1.0000
  Pd  Pd5       1.0  0.43044  0.17662  0.84698  1.0000
  Pd  Pd6       1.0  0.62443  0.37557  0.25000  1.0000
  Pd  Pd7       1.0  0.27145  0.52801  0.54401  1.0000
  Pd  Pd8       1.0  0.47199  0.72855  0.95599  1.0000
  Pd  Pd9       1.0  0.31796  0.07511  0.65406  1.0000
  Pd  Pd10      1.0  0.17662  0.43044  0.34698  1.0000
  Pd  Pd11      1.0  0.97335  0.21856  0.95162  1.0000
  Pd  Pd12      1.0  0.82338  0.56956  0.65302  1.0000
  Pd  Pd13      1.0  0.02665  0.78144  0.04838  1.0000
  Pd  Pd14      1.0  0.68204  0.92489  0.34594  1.0000
  Pd  Pd15      1.0  0.72855  0.47199  0.45599  1.0000
  Pd  Pd16      1.0  0.52801  0.27145  0.04401  1.0000
  Pd  Pd17      1.0  0.37557  0.62443  0.75000  1.0000
  Pd  Pd18      1.0  0.21856  0.97335  0.45162  1.0000
