data_image0
_chemical_formula_structural       Tl4Pd4
_chemical_formula_sum              "Tl4 Pd4"
_cell_length_a       5.61267
_cell_length_b       5.61267
_cell_length_c       5.97466
_cell_angle_alpha    90
_cell_angle_beta     90
_cell_angle_gamma    116.123

_space_group_name_H-M_alt    "P 1"
_space_group_IT_number       1

loop_
  _space_group_symop_operation_xyz
  'x, y, z'

loop_
  _atom_site_type_symbol
  _atom_site_label
  _atom_site_symmetry_multiplicity
  _atom_site_fract_x
  _atom_site_fract_y
  _atom_site_fract_z
  _atom_site_occupancy
  Tl  Tl1       1.0  0.33220  0.66780  0.34901  1.0000
  Tl  Tl2       1.0  0.66780  0.33220  0.65099  1.0000
  Tl  Tl3       1.0  0.16780  0.83220  0.84901  1.0000
  Tl  Tl4       1.0  0.83220  0.16780  0.15099  1.0000
  Pd  Pd1       1.0  0.83003  0.66997  0.25000  1.0000
  Pd  Pd2       1.0  0.66997  0.83003  0.75000  1.0000
  Pd  Pd3       1.0  0.16997  0.33003  0.75000  1.0000
  Pd  Pd4       1.0  0.33003  0.16997  0.25000  1.0000
