data_image0
_chemical_formula_structural       Se16Pd15
_chemical_formula_sum              "Se16 Pd15"
_cell_length_a       7.68172
_cell_length_b       8.89199
_cell_length_c       8.83436
_cell_angle_alpha    81.0231
_cell_angle_beta     90
_cell_angle_gamma    90

_space_group_name_H-M_alt    "P 1"
_space_group_IT_number       1

loop_
  _space_group_symop_operation_xyz
  'x, y, z'

loop_
  _atom_site_type_symbol
  _atom_site_label
  _atom_site_symmetry_multiplicity
  _atom_site_fract_x
  _atom_site_fract_y
  _atom_site_fract_z
  _atom_site_occupancy
  Se  Se1       1.0  0.24772  0.54540  0.28385  1.0000
  Se  Se2       1.0  0.00000  0.28299  0.05728  1.0000
  Se  Se3       1.0  0.74776  0.04553  0.79078  1.0000
  Se  Se4       1.0  0.50000  0.79156  0.53848  1.0000
  Se  Se5       1.0  0.00000  0.71701  0.94272  1.0000
  Se  Se6       1.0  0.75228  0.45460  0.71615  1.0000
  Se  Se7       1.0  0.50000  0.20844  0.46152  1.0000
  Se  Se8       1.0  0.25224  0.95447  0.20922  1.0000
  Se  Se9       1.0  0.50000  0.29391  0.03869  1.0000
  Se  Se10      1.0  0.25224  0.04553  0.79078  1.0000
  Se  Se11      1.0  0.00000  0.79526  0.53512  1.0000
  Se  Se12      1.0  0.75228  0.54540  0.28385  1.0000
  Se  Se13      1.0  0.74776  0.95447  0.20922  1.0000
  Se  Se14      1.0  0.50000  0.70609  0.96131  1.0000
  Se  Se15      1.0  0.24772  0.45460  0.71615  1.0000
  Se  Se16      1.0  0.00000  0.20474  0.46488  1.0000
  Pd  Pd1       1.0  0.23910  0.50000  0.00000  1.0000
  Pd  Pd2       1.0  0.00000  0.25455  0.75909  1.0000
  Pd  Pd3       1.0  0.74177  0.00000  0.50000  1.0000
  Pd  Pd4       1.0  0.50000  0.73971  0.25828  1.0000
  Pd  Pd5       1.0  0.00000  0.74545  0.24091  1.0000
  Pd  Pd6       1.0  0.76090  0.50000  0.00000  1.0000
  Pd  Pd7       1.0  0.50000  0.26029  0.74172  1.0000
  Pd  Pd8       1.0  0.25823  0.00000  0.50000  1.0000
  Pd  Pd9       1.0  0.00000  0.50000  0.50000  1.0000
  Pd  Pd10      1.0  0.74474  0.25543  0.25697  1.0000
  Pd  Pd11      1.0  0.50000  0.00000  0.00000  1.0000
  Pd  Pd12      1.0  0.25526  0.74457  0.74303  1.0000
  Pd  Pd13      1.0  0.25526  0.25543  0.25697  1.0000
  Pd  Pd14      1.0  0.00000  0.00000  0.00000  1.0000
  Pd  Pd15      1.0  0.74474  0.74457  0.74303  1.0000
