data_image0
_chemical_formula_structural       Tl12Pd8
_chemical_formula_sum              "Tl12 Pd8"
_cell_length_a       7.85811
_cell_length_b       7.85811
_cell_length_c       7.19321
_cell_angle_alpha    90
_cell_angle_beta     90
_cell_angle_gamma    90

_space_group_name_H-M_alt    "P 1"
_space_group_IT_number       1

loop_
  _space_group_symop_operation_xyz
  'x, y, z'

loop_
  _atom_site_type_symbol
  _atom_site_label
  _atom_site_symmetry_multiplicity
  _atom_site_fract_x
  _atom_site_fract_y
  _atom_site_fract_z
  _atom_site_occupancy
  Tl  Tl1       1.0  0.35472  0.35472  0.00000  1.0000
  Tl  Tl2       1.0  0.85472  0.14528  0.50000  1.0000
  Tl  Tl3       1.0  0.14528  0.85472  0.50000  1.0000
  Tl  Tl4       1.0  0.64528  0.64528  0.00000  1.0000
  Tl  Tl5       1.0  0.81344  0.18656  0.00000  1.0000
  Tl  Tl6       1.0  0.68656  0.68656  0.50000  1.0000
  Tl  Tl7       1.0  0.31344  0.31344  0.50000  1.0000
  Tl  Tl8       1.0  0.18656  0.81344  0.00000  1.0000
  Tl  Tl9       1.0  0.50000  0.00000  0.25000  1.0000
  Tl  Tl10      1.0  0.50000  0.00000  0.75000  1.0000
  Tl  Tl11      1.0  0.00000  0.50000  0.25000  1.0000
  Tl  Tl12      1.0  0.00000  0.50000  0.75000  1.0000
  Pd  Pd1       1.0  0.13052  0.13052  0.20757  1.0000
  Pd  Pd2       1.0  0.63052  0.36948  0.70757  1.0000
  Pd  Pd3       1.0  0.36948  0.63052  0.70757  1.0000
  Pd  Pd4       1.0  0.86948  0.86948  0.20757  1.0000
  Pd  Pd5       1.0  0.36948  0.63052  0.29243  1.0000
  Pd  Pd6       1.0  0.63052  0.36948  0.29243  1.0000
  Pd  Pd7       1.0  0.13052  0.13052  0.79243  1.0000
  Pd  Pd8       1.0  0.86948  0.86948  0.79243  1.0000
