data_image0
_chemical_formula_structural       Pd10Tl12
_chemical_formula_sum              "Pd10 Tl12"
_cell_length_a       15.1192
_cell_length_b       5.74287
_cell_length_c       5.58367
_cell_angle_alpha    91.2044
_cell_angle_beta     90
_cell_angle_gamma    90

_space_group_name_H-M_alt    "P 1"
_space_group_IT_number       1

loop_
  _space_group_symop_operation_xyz
  'x, y, z'

loop_
  _atom_site_type_symbol
  _atom_site_label
  _atom_site_symmetry_multiplicity
  _atom_site_fract_x
  _atom_site_fract_y
  _atom_site_fract_z
  _atom_site_occupancy
  Pd  Pd1       1.0  0.98151  0.86334  0.84322  1.0000
  Pd  Pd2       1.0  0.48151  0.13666  0.15678  1.0000
  Pd  Pd3       1.0  0.37494  0.44777  0.47081  1.0000
  Pd  Pd4       1.0  0.65970  0.87294  0.81273  1.0000
  Pd  Pd5       1.0  0.87494  0.55223  0.52919  1.0000
  Pd  Pd6       1.0  0.15801  0.64038  0.01436  1.0000
  Pd  Pd7       1.0  0.34362  0.84598  0.83116  1.0000
  Pd  Pd8       1.0  0.65801  0.35962  0.98564  1.0000
  Pd  Pd9       1.0  0.84362  0.15402  0.16884  1.0000
  Pd  Pd10      1.0  0.15970  0.12706  0.18727  1.0000
  Tl  Tl1       1.0  0.00073  0.87395  0.33701  1.0000
  Tl  Tl2       1.0  0.00444  0.36764  0.92975  1.0000
  Tl  Tl3       1.0  0.50073  0.12605  0.66299  1.0000
  Tl  Tl4       1.0  0.50444  0.63236  0.07025  1.0000
  Tl  Tl5       1.0  0.17653  0.51271  0.49592  1.0000
  Tl  Tl6       1.0  0.82579  0.09000  0.66747  1.0000
  Tl  Tl7       1.0  0.67653  0.48729  0.50408  1.0000
  Tl  Tl8       1.0  0.16077  0.01831  0.70172  1.0000
  Tl  Tl9       1.0  0.32579  0.91000  0.33253  1.0000
  Tl  Tl10      1.0  0.81568  0.63678  0.03884  1.0000
  Tl  Tl11      1.0  0.66077  0.98169  0.29828  1.0000
  Tl  Tl12      1.0  0.31568  0.36322  0.96116  1.0000
