data_image0
_chemical_formula_structural       Pd14Tl16
_chemical_formula_sum              "Pd14 Tl16"
_cell_length_a       7.13357
_cell_length_b       14.1507
_cell_length_c       7.32614
_cell_angle_alpha    89.9919
_cell_angle_beta     89.9967
_cell_angle_gamma    105.82

_space_group_name_H-M_alt    "P 1"
_space_group_IT_number       1

loop_
  _space_group_symop_operation_xyz
  'x, y, z'

loop_
  _atom_site_type_symbol
  _atom_site_label
  _atom_site_symmetry_multiplicity
  _atom_site_fract_x
  _atom_site_fract_y
  _atom_site_fract_z
  _atom_site_occupancy
  Pd  Pd1       1.0  0.00329  0.00181  0.99878  1.0000
  Pd  Pd2       1.0  0.25087  0.12561  0.51104  1.0000
  Pd  Pd3       1.0  0.49139  0.99625  0.50192  1.0000
  Pd  Pd4       1.0  0.50854  0.25360  0.00265  1.0000
  Pd  Pd5       1.0  0.74944  0.12447  0.01105  1.0000
  Pd  Pd6       1.0  0.99750  0.24835  0.49951  1.0000
  Pd  Pd7       1.0  0.99226  0.49625  0.99721  1.0000
  Pd  Pd8       1.0  0.24993  0.37492  0.00049  1.0000
  Pd  Pd9       1.0  0.50166  0.50158  0.50001  1.0000
  Pd  Pd10      1.0  0.24829  0.62422  0.49020  1.0000
  Pd  Pd11      1.0  0.49838  0.74841  0.99954  1.0000
  Pd  Pd12      1.0  0.75171  0.62589  0.99013  1.0000
  Pd  Pd13      1.0  0.74949  0.87487  0.50004  1.0000
  Pd  Pd14      1.0  0.00755  0.75371  0.49684  1.0000
  Tl  Tl1       1.0  0.62262  0.19042  0.34382  1.0000
  Tl  Tl2       1.0  0.86685  0.06129  0.66970  1.0000
  Tl  Tl3       1.0  0.87642  0.30987  0.82622  1.0000
  Tl  Tl4       1.0  0.13307  0.18863  0.17042  1.0000
  Tl  Tl5       1.0  0.11120  0.43311  0.33736  1.0000
  Tl  Tl6       1.0  0.38797  0.31701  0.66308  1.0000
  Tl  Tl7       1.0  0.36796  0.56114  0.83034  1.0000
  Tl  Tl8       1.0  0.62398  0.44002  0.17399  1.0000
  Tl  Tl9       1.0  0.63169  0.68870  0.32998  1.0000
  Tl  Tl10      1.0  0.87629  0.55972  0.65670  1.0000
  Tl  Tl11      1.0  0.88861  0.81691  0.83702  1.0000
  Tl  Tl12      1.0  0.12395  0.69042  0.15651  1.0000
  Tl  Tl13      1.0  0.12294  0.94012  0.32570  1.0000
  Tl  Tl14      1.0  0.37543  0.81003  0.67394  1.0000
  Tl  Tl15      1.0  0.61243  0.93296  0.16246  1.0000
  Tl  Tl16      1.0  0.37831  0.05970  0.84335  1.0000
