data_image0
_chemical_formula_structural       Pd2Tl10
_chemical_formula_sum              "Pd2 Tl10"
_cell_length_a       5.80985
_cell_length_b       5.80985
_cell_length_c       10.5213
_cell_angle_alpha    83.1753
_cell_angle_beta     83.1753
_cell_angle_gamma    108.115

_space_group_name_H-M_alt    "P 1"
_space_group_IT_number       1

loop_
  _space_group_symop_operation_xyz
  'x, y, z'

loop_
  _atom_site_type_symbol
  _atom_site_label
  _atom_site_symmetry_multiplicity
  _atom_site_fract_x
  _atom_site_fract_y
  _atom_site_fract_z
  _atom_site_occupancy
  Pd  Pd1       1.0  0.77332  0.77332  0.71601  1.0000
  Pd  Pd2       1.0  0.22668  0.22668  0.28399  1.0000
  Tl  Tl1       1.0  0.28109  0.80197  0.81445  1.0000
  Tl  Tl2       1.0  0.19803  0.71891  0.18555  1.0000
  Tl  Tl3       1.0  0.80197  0.28109  0.81445  1.0000
  Tl  Tl4       1.0  0.71891  0.19803  0.18555  1.0000
  Tl  Tl5       1.0  0.36729  0.36729  0.64495  1.0000
  Tl  Tl6       1.0  0.63271  0.63271  0.35505  1.0000
  Tl  Tl7       1.0  0.25634  0.25634  0.00112  1.0000
  Tl  Tl8       1.0  0.74366  0.74366  0.99888  1.0000
  Tl  Tl9       1.0  0.82633  0.17367  0.50000  1.0000
  Tl  Tl10      1.0  0.17367  0.82633  0.50000  1.0000
