data_image0
_chemical_formula_structural       Se6Pd2
_chemical_formula_sum              "Se6 Pd2"
_cell_length_a       15.9175
_cell_length_b       15.9175
_cell_length_c       15.9175
_cell_angle_alpha    15.7646
_cell_angle_beta     15.7646
_cell_angle_gamma    15.7646

_space_group_name_H-M_alt    "P 1"
_space_group_IT_number       1

loop_
  _space_group_symop_operation_xyz
  'x, y, z'

loop_
  _atom_site_type_symbol
  _atom_site_label
  _atom_site_symmetry_multiplicity
  _atom_site_fract_x
  _atom_site_fract_y
  _atom_site_fract_z
  _atom_site_occupancy
  Se  Se1       1.0  0.57619  0.57619  0.57619  1.0000
  Se  Se2       1.0  0.42381  0.42381  0.42381  1.0000
  Se  Se3       1.0  0.66028  0.66028  0.66028  1.0000
  Se  Se4       1.0  0.33972  0.33972  0.33972  1.0000
  Se  Se5       1.0  0.22715  0.22715  0.22715  1.0000
  Se  Se6       1.0  0.77285  0.77285  0.77285  1.0000
  Pd  Pd1       1.0  0.17776  0.17776  0.17776  1.0000
  Pd  Pd2       1.0  0.82224  0.82224  0.82224  1.0000
