data_image0
_chemical_formula_structural       Tl12Pd
_chemical_formula_sum              "Tl12 Pd1"
_cell_length_a       7.80691
_cell_length_b       7.80691
_cell_length_c       7.80691
_cell_angle_alpha    95.1203
_cell_angle_beta     95.1203
_cell_angle_gamma    95.1203

_space_group_name_H-M_alt    "P 1"
_space_group_IT_number       1

loop_
  _space_group_symop_operation_xyz
  'x, y, z'

loop_
  _atom_site_type_symbol
  _atom_site_label
  _atom_site_symmetry_multiplicity
  _atom_site_fract_x
  _atom_site_fract_y
  _atom_site_fract_z
  _atom_site_occupancy
  Tl  Tl1       1.0  0.26958  0.26958  0.64308  1.0000
  Tl  Tl2       1.0  0.97040  0.69153  0.97040  1.0000
  Tl  Tl3       1.0  0.73042  0.73042  0.35692  1.0000
  Tl  Tl4       1.0  0.69153  0.97040  0.97040  1.0000
  Tl  Tl5       1.0  0.73042  0.35692  0.73042  1.0000
  Tl  Tl6       1.0  0.30847  0.02960  0.02960  1.0000
  Tl  Tl7       1.0  0.35692  0.73042  0.73042  1.0000
  Tl  Tl8       1.0  0.64308  0.26958  0.26958  1.0000
  Tl  Tl9       1.0  0.26958  0.64308  0.26958  1.0000
  Tl  Tl10      1.0  0.02960  0.30847  0.02960  1.0000
  Tl  Tl11      1.0  0.02960  0.02960  0.30847  1.0000
  Tl  Tl12      1.0  0.97040  0.97040  0.69153  1.0000
  Pd  Pd1       1.0  0.50000  0.50000  0.50000  1.0000
