data_image0
_chemical_formula_structural       Pd12Tl14
_chemical_formula_sum              "Pd12 Tl14"
_cell_length_a       4.43225
_cell_length_b       7.72706
_cell_length_c       16.6394
_cell_angle_alpha    82.2053
_cell_angle_beta     90
_cell_angle_gamma    90

_space_group_name_H-M_alt    "P 1"
_space_group_IT_number       1

loop_
  _space_group_symop_operation_xyz
  'x, y, z'

loop_
  _atom_site_type_symbol
  _atom_site_label
  _atom_site_symmetry_multiplicity
  _atom_site_fract_x
  _atom_site_fract_y
  _atom_site_fract_z
  _atom_site_occupancy
  Pd  Pd1       1.0  0.25000  0.21382  0.16833  1.0000
  Pd  Pd2       1.0  0.75000  0.12439  0.88411  1.0000
  Pd  Pd3       1.0  0.25000  0.02872  0.60781  1.0000
  Pd  Pd4       1.0  0.25000  0.74902  0.45466  1.0000
  Pd  Pd5       1.0  0.75000  0.97128  0.39219  1.0000
  Pd  Pd6       1.0  0.75000  0.76441  0.01664  1.0000
  Pd  Pd7       1.0  0.75000  0.78618  0.83167  1.0000
  Pd  Pd8       1.0  0.25000  0.87561  0.11589  1.0000
  Pd  Pd9       1.0  0.75000  0.25098  0.54534  1.0000
  Pd  Pd10      1.0  0.25000  0.49475  0.28640  1.0000
  Pd  Pd11      1.0  0.25000  0.23559  0.98336  1.0000
  Pd  Pd12      1.0  0.75000  0.50525  0.71360  1.0000
  Tl  Tl1       1.0  0.75000  0.68244  0.19753  1.0000
  Tl  Tl2       1.0  0.75000  0.54491  0.40838  1.0000
  Tl  Tl3       1.0  0.75000  0.46797  0.92701  1.0000
  Tl  Tl4       1.0  0.25000  0.53203  0.07299  1.0000
  Tl  Tl5       1.0  0.75000  0.26113  0.26749  1.0000
  Tl  Tl6       1.0  0.25000  0.73887  0.73251  1.0000
  Tl  Tl7       1.0  0.75000  0.10592  0.07775  1.0000
  Tl  Tl8       1.0  0.75000  0.09310  0.71160  1.0000
  Tl  Tl9       1.0  0.25000  0.31756  0.80247  1.0000
  Tl  Tl10      1.0  0.25000  0.17756  0.43835  1.0000
  Tl  Tl11      1.0  0.25000  0.90690  0.28840  1.0000
  Tl  Tl12      1.0  0.25000  0.45509  0.59162  1.0000
  Tl  Tl13      1.0  0.75000  0.82244  0.56165  1.0000
  Tl  Tl14      1.0  0.25000  0.89408  0.92225  1.0000
