data_image0
_chemical_formula_structural       Pd10S10
_chemical_formula_sum              "Pd10 S10"
_cell_length_a       11.12
_cell_length_b       11.12
_cell_length_c       12.7054
_cell_angle_alpha    90
_cell_angle_beta     90
_cell_angle_gamma    156.622

_space_group_name_H-M_alt    "P 1"
_space_group_IT_number       1

loop_
  _space_group_symop_operation_xyz
  'x, y, z'

loop_
  _atom_site_type_symbol
  _atom_site_label
  _atom_site_symmetry_multiplicity
  _atom_site_fract_x
  _atom_site_fract_y
  _atom_site_fract_z
  _atom_site_occupancy
  Pd  Pd1       1.0  0.76925  0.18984  0.11678  1.0000
  Pd  Pd2       1.0  0.18984  0.76925  0.88322  1.0000
  Pd  Pd3       1.0  0.76925  0.18984  0.88322  1.0000
  Pd  Pd4       1.0  0.18984  0.76925  0.11678  1.0000
  Pd  Pd5       1.0  0.68355  0.27702  0.31526  1.0000
  Pd  Pd6       1.0  0.27702  0.68355  0.68474  1.0000
  Pd  Pd7       1.0  0.68355  0.27702  0.68474  1.0000
  Pd  Pd8       1.0  0.27702  0.68355  0.31526  1.0000
  Pd  Pd9       1.0  0.77642  0.18510  0.50000  1.0000
  Pd  Pd10      1.0  0.18510  0.77642  0.50000  1.0000
  S   S1        1.0  0.65771  0.30147  0.13015  1.0000
  S   S2        1.0  0.30147  0.65771  0.86985  1.0000
  S   S3        1.0  0.65771  0.30147  0.86985  1.0000
  S   S4        1.0  0.30147  0.65771  0.13015  1.0000
  S   S5        1.0  0.81279  0.14780  0.31213  1.0000
  S   S6        1.0  0.14780  0.81279  0.68787  1.0000
  S   S7        1.0  0.81279  0.14780  0.68787  1.0000
  S   S8        1.0  0.14780  0.81279  0.31213  1.0000
  S   S9        1.0  0.64719  0.31441  0.50000  1.0000
  S   S10       1.0  0.31441  0.64719  0.50000  1.0000
