data_image0
_chemical_formula_structural       Tl3Pd3
_chemical_formula_sum              "Tl3 Pd3"
_cell_length_a       7.3103
_cell_length_b       7.3103
_cell_length_c       7.3103
_cell_angle_alpha    117.823
_cell_angle_beta     117.823
_cell_angle_gamma    117.823

_space_group_name_H-M_alt    "P 1"
_space_group_IT_number       1

loop_
  _space_group_symop_operation_xyz
  'x, y, z'

loop_
  _atom_site_type_symbol
  _atom_site_label
  _atom_site_symmetry_multiplicity
  _atom_site_fract_x
  _atom_site_fract_y
  _atom_site_fract_z
  _atom_site_occupancy
  Tl  Tl1       1.0  0.30335  0.00654  0.00654  1.0000
  Tl  Tl2       1.0  0.00654  0.00654  0.30335  1.0000
  Tl  Tl3       1.0  0.00654  0.30335  0.00654  1.0000
  Pd  Pd1       1.0  0.37881  0.70838  0.70838  1.0000
  Pd  Pd2       1.0  0.70838  0.70838  0.37881  1.0000
  Pd  Pd3       1.0  0.70838  0.37881  0.70838  1.0000
