data_image0
_chemical_formula_structural       Pd10Tl18
_chemical_formula_sum              "Pd10 Tl18"
_cell_length_a       12.0857
_cell_length_b       12.0857
_cell_length_c       9.95084
_cell_angle_alpha    78.9093
_cell_angle_beta     78.9093
_cell_angle_gamma    27.7576

_space_group_name_H-M_alt    "P 1"
_space_group_IT_number       1

loop_
  _space_group_symop_operation_xyz
  'x, y, z'

loop_
  _atom_site_type_symbol
  _atom_site_label
  _atom_site_symmetry_multiplicity
  _atom_site_fract_x
  _atom_site_fract_y
  _atom_site_fract_z
  _atom_site_occupancy
  Pd  Pd1       1.0  0.56029  0.43822  0.25872  1.0000
  Pd  Pd2       1.0  0.35213  0.25859  0.66482  1.0000
  Pd  Pd3       1.0  0.13430  0.07094  0.05149  1.0000
  Pd  Pd4       1.0  0.91980  0.88400  0.46960  1.0000
  Pd  Pd5       1.0  0.79894  0.61739  0.85313  1.0000
  Pd  Pd6       1.0  0.11600  0.08020  0.53040  1.0000
  Pd  Pd7       1.0  0.92906  0.86570  0.94851  1.0000
  Pd  Pd8       1.0  0.74141  0.64787  0.33518  1.0000
  Pd  Pd9       1.0  0.56178  0.43971  0.74128  1.0000
  Pd  Pd10      1.0  0.38261  0.20106  0.14687  1.0000
  Tl  Tl1       1.0  0.03819  0.91853  0.67771  1.0000
  Tl  Tl2       1.0  0.40738  0.34397  0.88525  1.0000
  Tl  Tl3       1.0  0.60997  0.53822  0.46996  1.0000
  Tl  Tl4       1.0  0.85360  0.69642  0.07504  1.0000
  Tl  Tl5       1.0  0.21748  0.12703  0.27017  1.0000
  Tl  Tl6       1.0  0.46178  0.39003  0.53004  1.0000
  Tl  Tl7       1.0  0.87297  0.78252  0.72983  1.0000
  Tl  Tl8       1.0  0.08147  0.96181  0.32229  1.0000
  Tl  Tl9       1.0  0.30358  0.14640  0.92496  1.0000
  Tl  Tl10      1.0  0.65603  0.59262  0.11475  1.0000
  Tl  Tl11      1.0  0.29734  0.70266  0.00000  1.0000
  Tl  Tl12      1.0  0.69480  0.09094  0.21495  1.0000
  Tl  Tl13      1.0  0.90906  0.30520  0.78505  1.0000
  Tl  Tl14      1.0  0.14926  0.54393  0.30933  1.0000
  Tl  Tl15      1.0  0.45607  0.85074  0.69067  1.0000
  Tl  Tl16      1.0  0.02046  0.42249  0.55700  1.0000
  Tl  Tl17      1.0  0.79673  0.20327  0.00000  1.0000
  Tl  Tl18      1.0  0.57751  0.97954  0.44300  1.0000
