data_image0
_chemical_formula_structural       Pd6Tl6
_chemical_formula_sum              "Pd6 Tl6"
_cell_length_a       3.91908
_cell_length_b       3.91908
_cell_length_c       21.9372
_cell_angle_alpha    90
_cell_angle_beta     90
_cell_angle_gamma    120

_space_group_name_H-M_alt    "P 1"
_space_group_IT_number       1

loop_
  _space_group_symop_operation_xyz
  'x, y, z'

loop_
  _atom_site_type_symbol
  _atom_site_label
  _atom_site_symmetry_multiplicity
  _atom_site_fract_x
  _atom_site_fract_y
  _atom_site_fract_z
  _atom_site_occupancy
  Pd  Pd1       1.0  0.00000  0.00000  0.78355  1.0000
  Pd  Pd2       1.0  0.33333  0.66667  0.04848  1.0000
  Pd  Pd3       1.0  0.00000  0.00000  0.45108  1.0000
  Pd  Pd4       1.0  0.00000  0.00000  0.11726  1.0000
  Pd  Pd5       1.0  0.66667  0.33333  0.71634  1.0000
  Pd  Pd6       1.0  0.33333  0.66667  0.38283  1.0000
  Tl  Tl1       1.0  0.00000  0.00000  0.30900  1.0000
  Tl  Tl2       1.0  0.00000  0.00000  0.64158  1.0000
  Tl  Tl3       1.0  0.33333  0.66667  0.19116  1.0000
  Tl  Tl4       1.0  0.33333  0.66667  0.52558  1.0000
  Tl  Tl5       1.0  0.66667  0.33333  0.85870  1.0000
  Tl  Tl6       1.0  0.00000  0.00000  0.97441  1.0000
