data_image0
_chemical_formula_structural       Pd8Tl20
_chemical_formula_sum              "Pd8 Tl20"
_cell_length_a       9.48419
_cell_length_b       9.49676
_cell_length_c       10.321
_cell_angle_alpha    111.135
_cell_angle_beta     118.668
_cell_angle_gamma    85.2432

_space_group_name_H-M_alt    "P 1"
_space_group_IT_number       1

loop_
  _space_group_symop_operation_xyz
  'x, y, z'

loop_
  _atom_site_type_symbol
  _atom_site_label
  _atom_site_symmetry_multiplicity
  _atom_site_fract_x
  _atom_site_fract_y
  _atom_site_fract_z
  _atom_site_occupancy
  Pd  Pd1       1.0  0.40190  0.56301  0.12852  1.0000
  Pd  Pd2       1.0  0.59810  0.43699  0.87148  1.0000
  Pd  Pd3       1.0  0.96663  0.91367  0.07164  1.0000
  Pd  Pd4       1.0  0.03337  0.08633  0.92836  1.0000
  Pd  Pd5       1.0  0.81387  0.51000  0.24097  1.0000
  Pd  Pd6       1.0  0.18613  0.49000  0.75903  1.0000
  Pd  Pd7       1.0  0.25608  0.14017  0.27721  1.0000
  Pd  Pd8       1.0  0.74392  0.85983  0.72279  1.0000
  Tl  Tl1       1.0  0.95548  0.24552  0.18417  1.0000
  Tl  Tl2       1.0  0.04452  0.75448  0.81583  1.0000
  Tl  Tl3       1.0  0.27264  0.82502  0.22170  1.0000
  Tl  Tl4       1.0  0.72736  0.17498  0.77830  1.0000
  Tl  Tl5       1.0  0.46988  0.70019  0.96364  1.0000
  Tl  Tl6       1.0  0.53012  0.29981  0.03636  1.0000
  Tl  Tl7       1.0  0.30589  0.26552  0.58722  1.0000
  Tl  Tl8       1.0  0.69411  0.73448  0.41278  1.0000
  Tl  Tl9       1.0  0.11402  0.05186  0.68333  1.0000
  Tl  Tl10      1.0  0.88598  0.94814  0.31667  1.0000
  Tl  Tl11      1.0  0.39917  0.87006  0.57490  1.0000
  Tl  Tl12      1.0  0.60083  0.12994  0.42510  1.0000
  Tl  Tl13      1.0  0.35897  0.03808  0.04502  1.0000
  Tl  Tl14      1.0  0.64103  0.96192  0.95498  1.0000
  Tl  Tl15      1.0  0.85917  0.39318  0.49390  1.0000
  Tl  Tl16      1.0  0.14083  0.60682  0.50610  1.0000
  Tl  Tl17      1.0  0.64020  0.56799  0.68619  1.0000
  Tl  Tl18      1.0  0.35980  0.43201  0.31381  1.0000
  Tl  Tl19      1.0  0.09636  0.37829  0.93005  1.0000
  Tl  Tl20      1.0  0.90364  0.62171  0.06995  1.0000
