data_image0
_chemical_formula_structural       Pd12S12
_chemical_formula_sum              "Pd12 S12"
_cell_length_a       6.51383
_cell_length_b       7.14757
_cell_length_c       8.771
_cell_angle_alpha    82.8543
_cell_angle_beta     90
_cell_angle_gamma    90

_space_group_name_H-M_alt    "P 1"
_space_group_IT_number       1

loop_
  _space_group_symop_operation_xyz
  'x, y, z'

loop_
  _atom_site_type_symbol
  _atom_site_label
  _atom_site_symmetry_multiplicity
  _atom_site_fract_x
  _atom_site_fract_y
  _atom_site_fract_z
  _atom_site_occupancy
  Pd  Pd1       1.0  0.76448  0.56303  0.91883  1.0000
  Pd  Pd2       1.0  0.26448  0.43697  0.58117  1.0000
  Pd  Pd3       1.0  0.23552  0.43697  0.08117  1.0000
  Pd  Pd4       1.0  0.73552  0.56303  0.41883  1.0000
  Pd  Pd5       1.0  0.26028  0.79108  0.72021  1.0000
  Pd  Pd6       1.0  0.76028  0.20892  0.77979  1.0000
  Pd  Pd7       1.0  0.73972  0.20892  0.27979  1.0000
  Pd  Pd8       1.0  0.23972  0.79108  0.22021  1.0000
  Pd  Pd9       1.0  0.71270  0.91733  0.56078  1.0000
  Pd  Pd10      1.0  0.21270  0.08267  0.93922  1.0000
  Pd  Pd11      1.0  0.28730  0.08267  0.43922  1.0000
  Pd  Pd12      1.0  0.78730  0.91733  0.06078  1.0000
  S   S1        1.0  0.06831  0.38592  0.83501  1.0000
  S   S2        1.0  0.56831  0.61408  0.66499  1.0000
  S   S3        1.0  0.93169  0.61408  0.16499  1.0000
  S   S4        1.0  0.43169  0.38592  0.33501  1.0000
  S   S5        1.0  0.60432  0.25816  0.02182  1.0000
  S   S6        1.0  0.10432  0.74184  0.47818  1.0000
  S   S7        1.0  0.39568  0.74184  0.97818  1.0000
  S   S8        1.0  0.89568  0.25816  0.52182  1.0000
  S   S9        1.0  0.40916  0.13888  0.69496  1.0000
  S   S10       1.0  0.90916  0.86112  0.80504  1.0000
  S   S11       1.0  0.59084  0.86112  0.30504  1.0000
  S   S12       1.0  0.09084  0.13888  0.19496  1.0000
