data_image0
_chemical_formula_structural       Tl4Pd
_chemical_formula_sum              "Tl4 Pd1"
_cell_length_a       6.77535
_cell_length_b       6.77535
_cell_length_c       6.77535
_cell_angle_alpha    151.26
_cell_angle_beta     103.676
_cell_angle_gamma    83.4983

_space_group_name_H-M_alt    "P 1"
_space_group_IT_number       1

loop_
  _space_group_symop_operation_xyz
  'x, y, z'

loop_
  _atom_site_type_symbol
  _atom_site_label
  _atom_site_symmetry_multiplicity
  _atom_site_fract_x
  _atom_site_fract_y
  _atom_site_fract_z
  _atom_site_occupancy
  Tl  Tl1       1.0  0.70574  0.50000  0.20574  1.0000
  Tl  Tl2       1.0  0.29426  0.50000  0.79426  1.0000
  Tl  Tl3       1.0  0.24181  0.74181  0.50000  1.0000
  Tl  Tl4       1.0  0.75819  0.25819  0.50000  1.0000
  Pd  Pd1       1.0  0.00000  0.00000  0.00000  1.0000
