data_image0
_chemical_formula_structural       Pd7Tl12
_chemical_formula_sum              "Pd7 Tl12"
_cell_length_a       8.25463
_cell_length_b       8.25463
_cell_length_c       8.25463
_cell_angle_alpha    106.964
_cell_angle_beta     106.964
_cell_angle_gamma    106.964

_space_group_name_H-M_alt    "P 1"
_space_group_IT_number       1

loop_
  _space_group_symop_operation_xyz
  'x, y, z'

loop_
  _atom_site_type_symbol
  _atom_site_label
  _atom_site_symmetry_multiplicity
  _atom_site_fract_x
  _atom_site_fract_y
  _atom_site_fract_z
  _atom_site_occupancy
  Pd  Pd1       1.0  0.50000  0.50000  0.50000  1.0000
  Pd  Pd2       1.0  0.90900  0.98197  0.73586  1.0000
  Pd  Pd3       1.0  0.73586  0.90900  0.98197  1.0000
  Pd  Pd4       1.0  0.98197  0.73586  0.90900  1.0000
  Pd  Pd5       1.0  0.09100  0.01803  0.26414  1.0000
  Pd  Pd6       1.0  0.26414  0.09100  0.01803  1.0000
  Pd  Pd7       1.0  0.01803  0.26414  0.09100  1.0000
  Tl  Tl1       1.0  0.86430  0.61449  0.51990  1.0000
  Tl  Tl2       1.0  0.51990  0.86430  0.61449  1.0000
  Tl  Tl3       1.0  0.61449  0.51990  0.86430  1.0000
  Tl  Tl4       1.0  0.13570  0.38551  0.48010  1.0000
  Tl  Tl5       1.0  0.48010  0.13570  0.38551  1.0000
  Tl  Tl6       1.0  0.38551  0.48010  0.13570  1.0000
  Tl  Tl7       1.0  0.23353  0.07868  0.66091  1.0000
  Tl  Tl8       1.0  0.92132  0.33909  0.76647  1.0000
  Tl  Tl9       1.0  0.33909  0.76647  0.92132  1.0000
  Tl  Tl10      1.0  0.76647  0.92132  0.33909  1.0000
  Tl  Tl11      1.0  0.07868  0.66091  0.23353  1.0000
  Tl  Tl12      1.0  0.66091  0.23353  0.07868  1.0000
