data_image0
_chemical_formula_structural       Pd4Tl4
_chemical_formula_sum              "Pd4 Tl4"
_cell_length_a       5.03495
_cell_length_b       5.03495
_cell_length_c       8.6963
_cell_angle_alpha    93.906
_cell_angle_beta     93.906
_cell_angle_gamma    51.1987

_space_group_name_H-M_alt    "P 1"
_space_group_IT_number       1

loop_
  _space_group_symop_operation_xyz
  'x, y, z'

loop_
  _atom_site_type_symbol
  _atom_site_label
  _atom_site_symmetry_multiplicity
  _atom_site_fract_x
  _atom_site_fract_y
  _atom_site_fract_z
  _atom_site_occupancy
  Pd  Pd1       1.0  0.84989  0.84989  0.93884  1.0000
  Pd  Pd2       1.0  0.22641  0.22641  0.74570  1.0000
  Pd  Pd3       1.0  0.77359  0.77359  0.25430  1.0000
  Pd  Pd4       1.0  0.15011  0.15011  0.06116  1.0000
  Tl  Tl1       1.0  0.54517  0.54517  0.83153  1.0000
  Tl  Tl2       1.0  0.45483  0.45483  0.16847  1.0000
  Tl  Tl3       1.0  0.14178  0.14178  0.40933  1.0000
  Tl  Tl4       1.0  0.85822  0.85822  0.59067  1.0000
