data_image0
_chemical_formula_structural       Pd2Tl6
_chemical_formula_sum              "Pd2 Tl6"
_cell_length_a       6.66042
_cell_length_b       6.66042
_cell_length_c       6.49298
_cell_angle_alpha    63.1917
_cell_angle_beta     63.1917
_cell_angle_gamma    94.394

_space_group_name_H-M_alt    "P 1"
_space_group_IT_number       1

loop_
  _space_group_symop_operation_xyz
  'x, y, z'

loop_
  _atom_site_type_symbol
  _atom_site_label
  _atom_site_symmetry_multiplicity
  _atom_site_fract_x
  _atom_site_fract_y
  _atom_site_fract_z
  _atom_site_occupancy
  Pd  Pd1       1.0  0.70614  0.70614  0.09207  1.0000
  Pd  Pd2       1.0  0.29386  0.29386  0.90793  1.0000
  Tl  Tl1       1.0  0.71666  0.28334  0.50000  1.0000
  Tl  Tl2       1.0  0.28334  0.71666  0.50000  1.0000
  Tl  Tl3       1.0  0.82026  0.17974  0.00000  1.0000
  Tl  Tl4       1.0  0.17974  0.82026  0.00000  1.0000
  Tl  Tl5       1.0  0.72078  0.72078  0.64432  1.0000
  Tl  Tl6       1.0  0.27922  0.27922  0.35568  1.0000
