data_image0
_chemical_formula_structural       Pd2Tl8
_chemical_formula_sum              "Pd2 Tl8"
_cell_length_a       7.09624
_cell_length_b       7.09624
_cell_length_c       9.03769
_cell_angle_alpha    53.2067
_cell_angle_beta     53.2067
_cell_angle_gamma    62.0236

_space_group_name_H-M_alt    "P 1"
_space_group_IT_number       1

loop_
  _space_group_symop_operation_xyz
  'x, y, z'

loop_
  _atom_site_type_symbol
  _atom_site_label
  _atom_site_symmetry_multiplicity
  _atom_site_fract_x
  _atom_site_fract_y
  _atom_site_fract_z
  _atom_site_occupancy
  Pd  Pd1       1.0  0.29782  0.70218  0.00000  1.0000
  Pd  Pd2       1.0  0.70218  0.29782  0.00000  1.0000
  Tl  Tl1       1.0  0.31647  0.78563  0.64779  1.0000
  Tl  Tl2       1.0  0.21437  0.68353  0.35221  1.0000
  Tl  Tl3       1.0  0.21268  0.21268  0.83155  1.0000
  Tl  Tl4       1.0  0.78732  0.78732  0.16845  1.0000
  Tl  Tl5       1.0  0.22944  0.22944  0.21315  1.0000
  Tl  Tl6       1.0  0.77056  0.77056  0.78685  1.0000
  Tl  Tl7       1.0  0.78563  0.31647  0.64779  1.0000
  Tl  Tl8       1.0  0.68353  0.21437  0.35221  1.0000
