data_image0
_chemical_formula_structural       Tl2Pd2
_chemical_formula_sum              "Tl2 Pd2"
_cell_length_a       5.46262
_cell_length_b       5.46262
_cell_length_c       4.62003
_cell_angle_alpha    77.7395
_cell_angle_beta     77.7395
_cell_angle_gamma    37.1259

_space_group_name_H-M_alt    "P 1"
_space_group_IT_number       1

loop_
  _space_group_symop_operation_xyz
  'x, y, z'

loop_
  _atom_site_type_symbol
  _atom_site_label
  _atom_site_symmetry_multiplicity
  _atom_site_fract_x
  _atom_site_fract_y
  _atom_site_fract_z
  _atom_site_occupancy
  Tl  Tl1       1.0  0.87683  0.87683  0.79741  1.0000
  Tl  Tl2       1.0  0.12317  0.12317  0.20259  1.0000
  Pd  Pd1       1.0  0.61307  0.61307  0.70335  1.0000
  Pd  Pd2       1.0  0.38693  0.38693  0.29665  1.0000
