data_image0
_chemical_formula_structural       Tl6Pd6
_chemical_formula_sum              "Tl6 Pd6"
_cell_length_a       3.3918
_cell_length_b       4.78414
_cell_length_c       15.2379
_cell_angle_alpha    76.7819
_cell_angle_beta     83.5658
_cell_angle_gamma    90.1151

_space_group_name_H-M_alt    "P 1"
_space_group_IT_number       1

loop_
  _space_group_symop_operation_xyz
  'x, y, z'

loop_
  _atom_site_type_symbol
  _atom_site_label
  _atom_site_symmetry_multiplicity
  _atom_site_fract_x
  _atom_site_fract_y
  _atom_site_fract_z
  _atom_site_occupancy
  Tl  Tl1       1.0  0.20598  0.06680  0.59045  1.0000
  Tl  Tl2       1.0  0.03983  0.82116  0.91982  1.0000
  Tl  Tl3       1.0  0.87330  0.53430  0.25004  1.0000
  Tl  Tl4       1.0  0.12670  0.46570  0.74996  1.0000
  Tl  Tl5       1.0  0.96017  0.17884  0.08018  1.0000
  Tl  Tl6       1.0  0.79402  0.93320  0.40955  1.0000
  Pd  Pd1       1.0  0.70938  0.55895  0.58490  1.0000
  Pd  Pd2       1.0  0.54308  0.32929  0.91530  1.0000
  Pd  Pd3       1.0  0.37763  0.03665  0.24312  1.0000
  Pd  Pd4       1.0  0.62237  0.96335  0.75688  1.0000
  Pd  Pd5       1.0  0.45692  0.67071  0.08470  1.0000
  Pd  Pd6       1.0  0.29062  0.44105  0.41510  1.0000
