data_image0
_chemical_formula_structural       Pd2Tl6
_chemical_formula_sum              "Pd2 Tl6"
_cell_length_a       6.00934
_cell_length_b       6.00934
_cell_length_c       9.44379
_cell_angle_alpha    90
_cell_angle_beta     90
_cell_angle_gamma    142.427

_space_group_name_H-M_alt    "P 1"
_space_group_IT_number       1

loop_
  _space_group_symop_operation_xyz
  'x, y, z'

loop_
  _atom_site_type_symbol
  _atom_site_label
  _atom_site_symmetry_multiplicity
  _atom_site_fract_x
  _atom_site_fract_y
  _atom_site_fract_z
  _atom_site_occupancy
  Pd  Pd1       1.0  0.24380  0.75620  0.25000  1.0000
  Pd  Pd2       1.0  0.75620  0.24380  0.75000  1.0000
  Tl  Tl1       1.0  0.63933  0.36067  0.05636  1.0000
  Tl  Tl2       1.0  0.36067  0.63933  0.94364  1.0000
  Tl  Tl3       1.0  0.36067  0.63933  0.55636  1.0000
  Tl  Tl4       1.0  0.63933  0.36067  0.44364  1.0000
  Tl  Tl5       1.0  0.93684  0.06316  0.25000  1.0000
  Tl  Tl6       1.0  0.06316  0.93684  0.75000  1.0000
