data_image0
_chemical_formula_structural       Pd4Tl16
_chemical_formula_sum              "Pd4 Tl16"
_cell_length_a       8.43923
_cell_length_b       8.43923
_cell_length_c       10.7073
_cell_angle_alpha    86.717
_cell_angle_beta     86.717
_cell_angle_gamma    130.278

_space_group_name_H-M_alt    "P 1"
_space_group_IT_number       1

loop_
  _space_group_symop_operation_xyz
  'x, y, z'

loop_
  _atom_site_type_symbol
  _atom_site_label
  _atom_site_symmetry_multiplicity
  _atom_site_fract_x
  _atom_site_fract_y
  _atom_site_fract_z
  _atom_site_occupancy
  Pd  Pd1       1.0  0.00000  0.50000  0.00000  1.0000
  Pd  Pd2       1.0  0.86321  0.13679  0.25000  1.0000
  Pd  Pd3       1.0  0.50000  0.00000  0.50000  1.0000
  Pd  Pd4       1.0  0.13679  0.86321  0.75000  1.0000
  Tl  Tl1       1.0  0.00695  0.46633  0.73421  1.0000
  Tl  Tl2       1.0  0.75462  0.73569  0.24767  1.0000
  Tl  Tl3       1.0  0.60850  0.38636  0.51992  1.0000
  Tl  Tl4       1.0  0.91038  0.13796  0.50832  1.0000
  Tl  Tl5       1.0  0.86204  0.08962  0.99168  1.0000
  Tl  Tl6       1.0  0.61364  0.39150  0.98008  1.0000
  Tl  Tl7       1.0  0.53367  0.99305  0.76579  1.0000
  Tl  Tl8       1.0  0.26431  0.24538  0.25233  1.0000
  Tl  Tl9       1.0  0.73569  0.75462  0.74767  1.0000
  Tl  Tl10      1.0  0.46633  0.00695  0.23421  1.0000
  Tl  Tl11      1.0  0.38636  0.60850  0.01992  1.0000
  Tl  Tl12      1.0  0.13796  0.91038  0.00832  1.0000
  Tl  Tl13      1.0  0.08962  0.86204  0.49168  1.0000
  Tl  Tl14      1.0  0.39150  0.61364  0.48008  1.0000
  Tl  Tl15      1.0  0.24538  0.26431  0.75233  1.0000
  Tl  Tl16      1.0  0.99305  0.53367  0.26579  1.0000
