data_image0
_chemical_formula_structural       Pd2Se2
_chemical_formula_sum              "Pd2 Se2"
_cell_length_a       3.54137
_cell_length_b       3.79345
_cell_length_c       6.26758
_cell_angle_alpha    89.4937
_cell_angle_beta     90
_cell_angle_gamma    90

_space_group_name_H-M_alt    "P 1"
_space_group_IT_number       1

loop_
  _space_group_symop_operation_xyz
  'x, y, z'

loop_
  _atom_site_type_symbol
  _atom_site_label
  _atom_site_symmetry_multiplicity
  _atom_site_fract_x
  _atom_site_fract_y
  _atom_site_fract_z
  _atom_site_occupancy
  Pd  Pd1       1.0  0.00000  0.88292  0.99214  1.0000
  Pd  Pd2       1.0  0.00000  0.37148  0.34329  1.0000
  Se  Se1       1.0  0.00000  0.86799  0.59093  1.0000
  Se  Se2       1.0  0.50000  0.38247  0.04431  1.0000
