data_image0
_chemical_formula_structural       Pd16Tl16
_chemical_formula_sum              "Pd16 Tl16"
_cell_length_a       8.62421
_cell_length_b       8.62421
_cell_length_c       12.0493
_cell_angle_alpha    79.5471
_cell_angle_beta     79.7354
_cell_angle_gamma    119.838

_space_group_name_H-M_alt    "P 1"
_space_group_IT_number       1

loop_
  _space_group_symop_operation_xyz
  'x, y, z'

loop_
  _atom_site_type_symbol
  _atom_site_label
  _atom_site_symmetry_multiplicity
  _atom_site_fract_x
  _atom_site_fract_y
  _atom_site_fract_z
  _atom_site_occupancy
  Pd  Pd1       1.0  0.25195  0.25236  0.49570  1.0000
  Pd  Pd2       1.0  0.75282  0.75463  0.49255  1.0000
  Pd  Pd3       1.0  0.22962  0.89567  0.87471  1.0000
  Pd  Pd4       1.0  0.77056  0.10417  0.12527  1.0000
  Pd  Pd5       1.0  0.12630  0.12437  0.74933  1.0000
  Pd  Pd6       1.0  0.87646  0.87544  0.24810  1.0000
  Pd  Pd7       1.0  0.74909  0.24844  0.50063  1.0000
  Pd  Pd8       1.0  0.25092  0.75028  0.50063  1.0000
  Pd  Pd9       1.0  0.00092  0.99983  0.99925  1.0000
  Pd  Pd10      1.0  0.62340  0.12521  0.75080  1.0000
  Pd  Pd11      1.0  0.87638  0.37651  0.24916  1.0000
  Pd  Pd12      1.0  0.12399  0.62580  0.75080  1.0000
  Pd  Pd13      1.0  0.37433  0.87446  0.24916  1.0000
  Pd  Pd14      1.0  0.49819  0.99897  0.00066  1.0000
  Pd  Pd15      1.0  0.00037  0.50115  0.00066  1.0000
  Pd  Pd16      1.0  0.02104  0.35359  0.62537  1.0000
  Tl  Tl1       1.0  0.83575  0.53611  0.62815  1.0000
  Tl  Tl2       1.0  0.15051  0.48085  0.36864  1.0000
  Tl  Tl3       1.0  0.35696  0.02393  0.61910  1.0000
  Tl  Tl4       1.0  0.64094  0.98055  0.37851  1.0000
  Tl  Tl5       1.0  0.89460  0.22881  0.87659  1.0000
  Tl  Tl6       1.0  0.10146  0.76837  0.13017  1.0000
  Tl  Tl7       1.0  0.41919  0.27551  0.87690  1.0000
  Tl  Tl8       1.0  0.15353  0.29431  0.12588  1.0000
  Tl  Tl9       1.0  0.84760  0.70392  0.87690  1.0000
  Tl  Tl10      1.0  0.57982  0.72059  0.12588  1.0000
  Tl  Tl11      1.0  0.41904  0.70384  0.87711  1.0000
  Tl  Tl12      1.0  0.57856  0.29605  0.12538  1.0000
  Tl  Tl13      1.0  0.83431  0.98295  0.63093  1.0000
  Tl  Tl14      1.0  0.64122  0.47446  0.37237  1.0000
  Tl  Tl15      1.0  0.38611  0.53476  0.63093  1.0000
  Tl  Tl16      1.0  0.15317  0.98640  0.37237  1.0000
