data_image0
_chemical_formula_structural       Pd2Tl8
_chemical_formula_sum              "Pd2 Tl8"
_cell_length_a       7.28682
_cell_length_b       7.28682
_cell_length_c       7.28682
_cell_angle_alpha    104.626
_cell_angle_beta     104.626
_cell_angle_gamma    119.668

_space_group_name_H-M_alt    "P 1"
_space_group_IT_number       1

loop_
  _space_group_symop_operation_xyz
  'x, y, z'

loop_
  _atom_site_type_symbol
  _atom_site_label
  _atom_site_symmetry_multiplicity
  _atom_site_fract_x
  _atom_site_fract_y
  _atom_site_fract_z
  _atom_site_occupancy
  Pd  Pd1       1.0  0.25000  0.75000  0.50000  1.0000
  Pd  Pd2       1.0  0.00000  0.00000  0.00000  1.0000
  Tl  Tl1       1.0  0.90928  0.21801  0.30873  1.0000
  Tl  Tl2       1.0  0.85055  0.65928  0.19127  1.0000
  Tl  Tl3       1.0  0.39945  0.09072  0.30873  1.0000
  Tl  Tl4       1.0  0.34072  0.53199  0.19127  1.0000
  Tl  Tl5       1.0  0.34072  0.14945  0.80873  1.0000
  Tl  Tl6       1.0  0.78199  0.09072  0.69127  1.0000
  Tl  Tl7       1.0  0.90928  0.60055  0.69127  1.0000
  Tl  Tl8       1.0  0.46801  0.65928  0.80873  1.0000
