data_image0
_chemical_formula_structural       Pd2Se2
_chemical_formula_sum              "Pd2 Se2"
_cell_length_a       4.97937
_cell_length_b       4.97937
_cell_length_c       4.97937
_cell_angle_alpha    137.552
_cell_angle_beta     98.2371
_cell_angle_gamma    96.8252

_space_group_name_H-M_alt    "P 1"
_space_group_IT_number       1

loop_
  _space_group_symop_operation_xyz
  'x, y, z'

loop_
  _atom_site_type_symbol
  _atom_site_label
  _atom_site_symmetry_multiplicity
  _atom_site_fract_x
  _atom_site_fract_y
  _atom_site_fract_z
  _atom_site_occupancy
  Pd  Pd1       1.0  0.29461  0.29461  0.00000  1.0000
  Pd  Pd2       1.0  0.70539  0.70539  1.00000  1.0000
  Se  Se1       1.0  0.75009  0.00000  0.75009  1.0000
  Se  Se2       1.0  0.24991  0.00000  0.24991  1.0000
