data_image0
_chemical_formula_structural       Pd2Se2
_chemical_formula_sum              "Pd2 Se2"
_cell_length_a       8.36106
_cell_length_b       8.36106
_cell_length_c       8.36106
_cell_angle_alpha    26.1062
_cell_angle_beta     26.1062
_cell_angle_gamma    26.1062

_space_group_name_H-M_alt    "P 1"
_space_group_IT_number       1

loop_
  _space_group_symop_operation_xyz
  'x, y, z'

loop_
  _atom_site_type_symbol
  _atom_site_label
  _atom_site_symmetry_multiplicity
  _atom_site_fract_x
  _atom_site_fract_y
  _atom_site_fract_z
  _atom_site_occupancy
  Pd  Pd1       1.0  0.11203  0.11203  0.11203  1.0000
  Pd  Pd2       1.0  0.00016  0.00016  0.00016  1.0000
  Se  Se1       1.0  0.62325  0.62325  0.62325  1.0000
  Se  Se2       1.0  0.82226  0.82226  0.82226  1.0000
