data_image0
_chemical_formula_structural       Pd4Tl6
_chemical_formula_sum              "Pd4 Tl6"
_cell_length_a       12.0089
_cell_length_b       12.0089
_cell_length_c       12.0089
_cell_angle_alpha    162.438
_cell_angle_beta     152.587
_cell_angle_gamma    32.7431

_space_group_name_H-M_alt    "P 1"
_space_group_IT_number       1

loop_
  _space_group_symop_operation_xyz
  'x, y, z'

loop_
  _atom_site_type_symbol
  _atom_site_label
  _atom_site_symmetry_multiplicity
  _atom_site_fract_x
  _atom_site_fract_y
  _atom_site_fract_z
  _atom_site_occupancy
  Pd  Pd1       1.0  0.59168  0.09168  0.50000  1.0000
  Pd  Pd2       1.0  0.40832  0.90832  0.50000  1.0000
  Pd  Pd3       1.0  0.77445  0.27445  0.50000  1.0000
  Pd  Pd4       1.0  0.22555  0.72555  0.50000  1.0000
  Tl  Tl1       1.0  0.86971  0.86971  0.00000  1.0000
  Tl  Tl2       1.0  0.13029  0.13029  0.00000  1.0000
  Tl  Tl3       1.0  0.31604  0.31604  0.00000  1.0000
  Tl  Tl4       1.0  0.68396  0.68396  0.00000  1.0000
  Tl  Tl5       1.0  0.50000  0.50000  0.00000  1.0000
  Tl  Tl6       1.0  0.00000  0.50000  0.50000  1.0000
