data_image0
_chemical_formula_structural       Pd4Se4
_chemical_formula_sum              "Pd4 Se4"
_cell_length_a       3.78997
_cell_length_b       3.78997
_cell_length_c       16.5009
_cell_angle_alpha    90
_cell_angle_beta     90
_cell_angle_gamma    120

_space_group_name_H-M_alt    "P 1"
_space_group_IT_number       1

loop_
  _space_group_symop_operation_xyz
  'x, y, z'

loop_
  _atom_site_type_symbol
  _atom_site_label
  _atom_site_symmetry_multiplicity
  _atom_site_fract_x
  _atom_site_fract_y
  _atom_site_fract_z
  _atom_site_occupancy
  Pd  Pd1       1.0  0.33333  0.66667  0.58288  1.0000
  Pd  Pd2       1.0  0.33333  0.66667  0.41712  1.0000
  Pd  Pd3       1.0  0.66667  0.33333  0.91722  1.0000
  Pd  Pd4       1.0  0.66667  0.33333  0.08278  1.0000
  Se  Se1       1.0  0.00000  0.00000  0.85494  1.0000
  Se  Se2       1.0  0.00000  0.00000  0.14506  1.0000
  Se  Se3       1.0  0.66667  0.33333  0.64500  1.0000
  Se  Se4       1.0  0.66667  0.33333  0.35500  1.0000
