data_image0
_chemical_formula_structural       Pd4Tl24
_chemical_formula_sum              "Pd4 Tl24"
_cell_length_a       16.113
_cell_length_b       5.70247
_cell_length_c       9.73261
_cell_angle_alpha    68.3272
_cell_angle_beta     90
_cell_angle_gamma    90

_space_group_name_H-M_alt    "P 1"
_space_group_IT_number       1

loop_
  _space_group_symop_operation_xyz
  'x, y, z'

loop_
  _atom_site_type_symbol
  _atom_site_label
  _atom_site_symmetry_multiplicity
  _atom_site_fract_x
  _atom_site_fract_y
  _atom_site_fract_z
  _atom_site_occupancy
  Pd  Pd1       1.0  0.92783  0.24992  0.20501  1.0000
  Pd  Pd2       1.0  0.42783  0.75008  0.29499  1.0000
  Pd  Pd3       1.0  0.07217  0.75008  0.79499  1.0000
  Pd  Pd4       1.0  0.57217  0.24992  0.70501  1.0000
  Tl  Tl1       1.0  0.31688  0.54865  0.90338  1.0000
  Tl  Tl2       1.0  0.81688  0.45135  0.59662  1.0000
  Tl  Tl3       1.0  0.68312  0.45135  0.09662  1.0000
  Tl  Tl4       1.0  0.18312  0.54865  0.40338  1.0000
  Tl  Tl5       1.0  0.89529  0.01655  0.50880  1.0000
  Tl  Tl6       1.0  0.39529  0.98345  0.99120  1.0000
  Tl  Tl7       1.0  0.10471  0.98345  0.49120  1.0000
  Tl  Tl8       1.0  0.60471  0.01655  0.00880  1.0000
  Tl  Tl9       1.0  0.83980  0.23536  0.95021  1.0000
  Tl  Tl10      1.0  0.33980  0.76464  0.54979  1.0000
  Tl  Tl11      1.0  0.16020  0.76464  0.04979  1.0000
  Tl  Tl12      1.0  0.66020  0.23536  0.45021  1.0000
  Tl  Tl13      1.0  0.25860  0.13863  0.23851  1.0000
  Tl  Tl14      1.0  0.75860  0.86137  0.26149  1.0000
  Tl  Tl15      1.0  0.74140  0.86137  0.76149  1.0000
  Tl  Tl16      1.0  0.24140  0.13863  0.73851  1.0000
  Tl  Tl17      1.0  0.43371  0.25592  0.53753  1.0000
  Tl  Tl18      1.0  0.93371  0.74408  0.96247  1.0000
  Tl  Tl19      1.0  0.56629  0.74408  0.46247  1.0000
  Tl  Tl20      1.0  0.06629  0.25592  0.03753  1.0000
  Tl  Tl21      1.0  0.47713  0.33675  0.18896  1.0000
  Tl  Tl22      1.0  0.97713  0.66325  0.31104  1.0000
  Tl  Tl23      1.0  0.52287  0.66325  0.81104  1.0000
  Tl  Tl24      1.0  0.02287  0.33675  0.68896  1.0000
