data_image0
_chemical_formula_structural       Pd2Tl2
_chemical_formula_sum              "Pd2 Tl2"
_cell_length_a       5.82508
_cell_length_b       5.82508
_cell_length_c       5.82508
_cell_angle_alpha    143.429
_cell_angle_beta     136.054
_cell_angle_gamma    58.4583

_space_group_name_H-M_alt    "P 1"
_space_group_IT_number       1

loop_
  _space_group_symop_operation_xyz
  'x, y, z'

loop_
  _atom_site_type_symbol
  _atom_site_label
  _atom_site_symmetry_multiplicity
  _atom_site_fract_x
  _atom_site_fract_y
  _atom_site_fract_z
  _atom_site_occupancy
  Pd  Pd1       1.0  0.38552  0.63552  0.75000  1.0000
  Pd  Pd2       1.0  0.61448  0.36448  0.25000  1.0000
  Tl  Tl1       1.0  0.13385  0.88385  0.25000  1.0000
  Tl  Tl2       1.0  0.86615  0.11615  0.75000  1.0000
