data_image0
_chemical_formula_structural       BiAu2
_chemical_formula_sum              "Bi1 Au2"
_cell_length_a       4.47564
_cell_length_b       4.47564
_cell_length_c       5.35283
_cell_angle_alpha    88.7263
_cell_angle_beta     88.7263
_cell_angle_gamma    59.3862

_space_group_name_H-M_alt    "P 1"
_space_group_IT_number       1

loop_
  _space_group_symop_operation_xyz
  'x, y, z'

loop_
  _atom_site_type_symbol
  _atom_site_label
  _atom_site_symmetry_multiplicity
  _atom_site_fract_x
  _atom_site_fract_y
  _atom_site_fract_z
  _atom_site_occupancy
  Bi  Bi1       1.0  0.75328  0.24672  0.50000  1.0000
  Au  Au1       1.0  0.23783  0.99111  0.83812  1.0000
  Au  Au2       1.0  0.00889  0.76217  0.16188  1.0000
