data_image0
_chemical_formula_structural       Bi4C10
_chemical_formula_sum              "Bi4 C10"
_cell_length_a       7.7861
_cell_length_b       7.7861
_cell_length_c       6.8781
_cell_angle_alpha    65.05
_cell_angle_beta     65.05
_cell_angle_gamma    44.6396

_space_group_name_H-M_alt    "P 1"
_space_group_IT_number       1

loop_
  _space_group_symop_operation_xyz
  'x, y, z'

loop_
  _atom_site_type_symbol
  _atom_site_label
  _atom_site_symmetry_multiplicity
  _atom_site_fract_x
  _atom_site_fract_y
  _atom_site_fract_z
  _atom_site_occupancy
  Bi  Bi1       1.0  0.40091  0.40090  0.90599  1.0000
  Bi  Bi2       1.0  0.59910  0.59909  0.09401  1.0000
  Bi  Bi3       1.0  0.13087  0.13087  0.64338  1.0000
  Bi  Bi4       1.0  0.86913  0.86913  0.35662  1.0000
  C   C1        1.0  0.47423  0.97802  0.23402  1.0000
  C   C2        1.0  0.02198  0.52577  0.76598  1.0000
  C   C3        1.0  0.52577  0.02198  0.76598  1.0000
  C   C4        1.0  0.97802  0.47423  0.23402  1.0000
  C   C5        1.0  0.25104  0.74895  0.50000  1.0000
  C   C6        1.0  0.74896  0.25105  0.50000  1.0000
  C   C7        1.0  0.90458  0.90458  0.91246  1.0000
  C   C8        1.0  0.09542  0.09542  0.08754  1.0000
  C   C9        1.0  0.63328  0.63328  0.63939  1.0000
  C   C10       1.0  0.36672  0.36672  0.36061  1.0000
