data_image0
_chemical_formula_structural       Cl6Bi2
_chemical_formula_sum              "Cl6 Bi2"
_cell_length_a       5.59456
_cell_length_b       5.59456
_cell_length_c       4.43712
_cell_angle_alpha    90
_cell_angle_beta     90
_cell_angle_gamma    120

_space_group_name_H-M_alt    "P 1"
_space_group_IT_number       1

loop_
  _space_group_symop_operation_xyz
  'x, y, z'

loop_
  _atom_site_type_symbol
  _atom_site_label
  _atom_site_symmetry_multiplicity
  _atom_site_fract_x
  _atom_site_fract_y
  _atom_site_fract_z
  _atom_site_occupancy
  Cl  Cl1       1.0  0.15927  0.31855  0.25000  1.0000
  Cl  Cl2       1.0  0.68145  0.84072  0.25000  1.0000
  Cl  Cl3       1.0  0.15928  0.84072  0.25000  1.0000
  Cl  Cl4       1.0  0.84072  0.68145  0.75000  1.0000
  Cl  Cl5       1.0  0.31855  0.15928  0.75000  1.0000
  Cl  Cl6       1.0  0.84073  0.15928  0.75000  1.0000
  Bi  Bi1       1.0  0.33333  0.66667  0.75000  1.0000
  Bi  Bi2       1.0  0.66667  0.33333  0.25000  1.0000
