data_image0
_chemical_formula_structural       F3Bi2
_chemical_formula_sum              "F3 Bi2"
_cell_length_a       4.29058
_cell_length_b       4.29058
_cell_length_c       5.33112
_cell_angle_alpha    90
_cell_angle_beta     90
_cell_angle_gamma    120

_space_group_name_H-M_alt    "P 1"
_space_group_IT_number       1

loop_
  _space_group_symop_operation_xyz
  'x, y, z'

loop_
  _atom_site_type_symbol
  _atom_site_label
  _atom_site_symmetry_multiplicity
  _atom_site_fract_x
  _atom_site_fract_y
  _atom_site_fract_z
  _atom_site_occupancy
  F   F1        1.0  0.00000  0.00000  0.00000  1.0000
  F   F2        1.0  0.33333  0.66667  0.64357  1.0000
  F   F3        1.0  0.66667  0.33333  0.35643  1.0000
  Bi  Bi1       1.0  0.33333  0.66667  0.16565  1.0000
  Bi  Bi2       1.0  0.66667  0.33333  0.83435  1.0000
