data_image0
_chemical_formula_structural       Bi2Hg4
_chemical_formula_sum              "Bi2 Hg4"
_cell_length_a       5.80672
_cell_length_b       5.80672
_cell_length_c       5.80672
_cell_angle_alpha    104.59
_cell_angle_beta     104.59
_cell_angle_gamma    119.75

_space_group_name_H-M_alt    "P 1"
_space_group_IT_number       1

loop_
  _space_group_symop_operation_xyz
  'x, y, z'

loop_
  _atom_site_type_symbol
  _atom_site_label
  _atom_site_symmetry_multiplicity
  _atom_site_fract_x
  _atom_site_fract_y
  _atom_site_fract_z
  _atom_site_occupancy
  Bi  Bi1       1.0  0.75000  0.75000  0.00000  1.0000
  Bi  Bi2       1.0  0.25000  0.25000  0.00000  1.0000
  Hg  Hg1       1.0  0.66092  0.16092  0.82184  1.0000
  Hg  Hg2       1.0  0.16092  0.33908  0.50000  1.0000
  Hg  Hg3       1.0  0.83908  0.66092  0.50000  1.0000
  Hg  Hg4       1.0  0.33908  0.83908  0.17816  1.0000
