data_image0
_chemical_formula_structural       Bi4F12
_chemical_formula_sum              "Bi4 F12"
_cell_length_a       5.34204
_cell_length_b       5.85991
_cell_length_c       7.63112
_cell_angle_alpha    90
_cell_angle_beta     90
_cell_angle_gamma    90

_space_group_name_H-M_alt    "P 1"
_space_group_IT_number       1

loop_
  _space_group_symop_operation_xyz
  'x, y, z'

loop_
  _atom_site_type_symbol
  _atom_site_label
  _atom_site_symmetry_multiplicity
  _atom_site_fract_x
  _atom_site_fract_y
  _atom_site_fract_z
  _atom_site_occupancy
  Bi  Bi1       1.0  0.53029  0.10405  0.75000  1.0000
  Bi  Bi2       1.0  0.03029  0.39595  0.25000  1.0000
  Bi  Bi3       1.0  0.96971  0.60405  0.75000  1.0000
  Bi  Bi4       1.0  0.46971  0.89595  0.25000  1.0000
  F   F1        1.0  0.67809  0.82035  0.94824  1.0000
  F   F2        1.0  0.17809  0.67965  0.05176  1.0000
  F   F3        1.0  0.82191  0.32035  0.55176  1.0000
  F   F4        1.0  0.32191  0.17965  0.44824  1.0000
  F   F5        1.0  0.90257  0.00673  0.25000  1.0000
  F   F6        1.0  0.40257  0.49327  0.75000  1.0000
  F   F7        1.0  0.59743  0.50673  0.25000  1.0000
  F   F8        1.0  0.09743  0.99327  0.75000  1.0000
  F   F9        1.0  0.67809  0.82035  0.55176  1.0000
  F   F10       1.0  0.17809  0.67965  0.44824  1.0000
  F   F11       1.0  0.82191  0.32035  0.94824  1.0000
  F   F12       1.0  0.32191  0.17965  0.05176  1.0000
