data_image0
_chemical_formula_structural       Bi2Tl6
_chemical_formula_sum              "Bi2 Tl6"
_cell_length_a       8.2755
_cell_length_b       8.2755
_cell_length_c       8.2755
_cell_angle_alpha    151.079
_cell_angle_beta     151.079
_cell_angle_gamma    41.3602

_space_group_name_H-M_alt    "P 1"
_space_group_IT_number       1

loop_
  _space_group_symop_operation_xyz
  'x, y, z'

loop_
  _atom_site_type_symbol
  _atom_site_label
  _atom_site_symmetry_multiplicity
  _atom_site_fract_x
  _atom_site_fract_y
  _atom_site_fract_z
  _atom_site_occupancy
  Bi  Bi1       1.0  0.87477  0.87477  0.00000  1.0000
  Bi  Bi2       1.0  0.12523  0.12523  0.00000  1.0000
  Tl  Tl1       1.0  0.00000  0.50000  0.50000  1.0000
  Tl  Tl2       1.0  0.50000  0.00000  0.50000  1.0000
  Tl  Tl3       1.0  0.75000  0.25000  0.50000  1.0000
  Tl  Tl4       1.0  0.25000  0.75000  0.50000  1.0000
  Tl  Tl5       1.0  0.62605  0.62605  0.00000  1.0000
  Tl  Tl6       1.0  0.37395  0.37395  0.00000  1.0000
