data_image0
_chemical_formula_structural       Cd4Hg6
_chemical_formula_sum              "Cd4 Hg6"
_cell_length_a       6.99533
_cell_length_b       6.99533
_cell_length_c       6.99533
_cell_angle_alpha    134.542
_cell_angle_beta     123.834
_cell_angle_gamma    75.0356

_space_group_name_H-M_alt    "P 1"
_space_group_IT_number       1

loop_
  _space_group_symop_operation_xyz
  'x, y, z'

loop_
  _atom_site_type_symbol
  _atom_site_label
  _atom_site_symmetry_multiplicity
  _atom_site_fract_x
  _atom_site_fract_y
  _atom_site_fract_z
  _atom_site_occupancy
  Cd  Cd1       1.0  0.60479  0.34474  0.26005  1.0000
  Cd  Cd2       1.0  0.39521  0.65526  0.73995  1.0000
  Cd  Cd3       1.0  0.91532  0.15526  0.76005  1.0000
  Cd  Cd4       1.0  0.08468  0.84474  0.23995  1.0000
  Hg  Hg1       1.0  0.52038  0.89087  0.62951  1.0000
  Hg  Hg2       1.0  0.47962  0.10914  0.37049  1.0000
  Hg  Hg3       1.0  0.26135  0.39087  0.87049  1.0000
  Hg  Hg4       1.0  0.73865  0.60914  0.12951  1.0000
  Hg  Hg5       1.0  0.00000  0.75000  0.75000  1.0000
  Hg  Hg6       1.0  0.00000  0.25000  0.25000  1.0000
