data_image0
_chemical_formula_structural       N6Cd2
_chemical_formula_sum              "N6 Cd2"
_cell_length_a       4.92894
_cell_length_b       5.29957
_cell_length_c       5.9784
_cell_angle_alpha    90
_cell_angle_beta     90
_cell_angle_gamma    90

_space_group_name_H-M_alt    "P 1"
_space_group_IT_number       1

loop_
  _space_group_symop_operation_xyz
  'x, y, z'

loop_
  _atom_site_type_symbol
  _atom_site_label
  _atom_site_symmetry_multiplicity
  _atom_site_fract_x
  _atom_site_fract_y
  _atom_site_fract_z
  _atom_site_occupancy
  N   N1        1.0  0.00000  0.33659  0.25032  1.0000
  N   N2        1.0  0.00000  0.33659  0.74968  1.0000
  N   N3        1.0  0.50000  0.66341  0.24968  1.0000
  N   N4        1.0  0.50000  0.66341  0.75032  1.0000
  N   N5        1.0  0.00000  0.82621  0.50000  1.0000
  N   N6        1.0  0.50000  0.17379  0.00000  1.0000
  Cd  Cd1       1.0  0.00000  0.83180  0.00000  1.0000
  Cd  Cd2       1.0  0.50000  0.16820  0.50000  1.0000
