data_image0
_chemical_formula_structural       Cd4I8
_chemical_formula_sum              "Cd4 I8"
_cell_length_a       4.33009
_cell_length_b       5.72799
_cell_length_c       8.38948
_cell_angle_alpha    90
_cell_angle_beta     90
_cell_angle_gamma    90

_space_group_name_H-M_alt    "P 1"
_space_group_IT_number       1

loop_
  _space_group_symop_operation_xyz
  'x, y, z'

loop_
  _atom_site_type_symbol
  _atom_site_label
  _atom_site_symmetry_multiplicity
  _atom_site_fract_x
  _atom_site_fract_y
  _atom_site_fract_z
  _atom_site_occupancy
  Cd  Cd1       1.0  0.75000  0.79830  0.89334  1.0000
  Cd  Cd2       1.0  0.75000  0.29830  0.60666  1.0000
  Cd  Cd3       1.0  0.25000  0.20170  0.10665  1.0000
  Cd  Cd4       1.0  0.25000  0.70170  0.39335  1.0000
  I   I1        1.0  0.75000  0.45261  0.28443  1.0000
  I   I2        1.0  0.75000  0.95261  0.21557  1.0000
  I   I3        1.0  0.25000  0.54739  0.71557  1.0000
  I   I4        1.0  0.25000  0.04739  0.78443  1.0000
  I   I5        1.0  0.75000  0.32563  0.93237  1.0000
  I   I6        1.0  0.75000  0.82563  0.56763  1.0000
  I   I7        1.0  0.25000  0.67437  0.06763  1.0000
  I   I8        1.0  0.25000  0.17437  0.43237  1.0000
