data_image0
_chemical_formula_structural       Cd4Hg2
_chemical_formula_sum              "Cd4 Hg2"
_cell_length_a       5.71559
_cell_length_b       5.71559
_cell_length_c       5.71559
_cell_angle_alpha    105.234
_cell_angle_beta     105.234
_cell_angle_gamma    118.325

_space_group_name_H-M_alt    "P 1"
_space_group_IT_number       1

loop_
  _space_group_symop_operation_xyz
  'x, y, z'

loop_
  _atom_site_type_symbol
  _atom_site_label
  _atom_site_symmetry_multiplicity
  _atom_site_fract_x
  _atom_site_fract_y
  _atom_site_fract_z
  _atom_site_occupancy
  Cd  Cd1       1.0  0.15549  0.65549  0.81099  1.0000
  Cd  Cd2       1.0  0.34451  0.15549  0.50000  1.0000
  Cd  Cd3       1.0  0.65549  0.84451  0.50000  1.0000
  Cd  Cd4       1.0  0.84451  0.34451  0.18901  1.0000
  Hg  Hg1       1.0  0.25000  0.25000  0.00000  1.0000
  Hg  Hg2       1.0  0.75000  0.75000  0.00000  1.0000
