data_image0
_chemical_formula_structural       Tl4Cd2
_chemical_formula_sum              "Tl4 Cd2"
_cell_length_a       5.34712
_cell_length_b       5.34712
_cell_length_c       5.34712
_cell_angle_alpha    90
_cell_angle_beta     90
_cell_angle_gamma    90

_space_group_name_H-M_alt    "P 1"
_space_group_IT_number       1

loop_
  _space_group_symop_operation_xyz
  'x, y, z'

loop_
  _atom_site_type_symbol
  _atom_site_label
  _atom_site_symmetry_multiplicity
  _atom_site_fract_x
  _atom_site_fract_y
  _atom_site_fract_z
  _atom_site_occupancy
  Tl  Tl1       1.0  0.25000  0.25000  0.75000  1.0000
  Tl  Tl2       1.0  0.75000  0.25000  0.25000  1.0000
  Tl  Tl3       1.0  0.25000  0.75000  0.25000  1.0000
  Tl  Tl4       1.0  0.75000  0.75000  0.75000  1.0000
  Cd  Cd1       1.0  0.00000  0.00000  0.00000  1.0000
  Cd  Cd2       1.0  0.50000  0.50000  0.50000  1.0000
