data_image0
_chemical_formula_structural       Tl4Cd4
_chemical_formula_sum              "Tl4 Cd4"
_cell_length_a       3.64253
_cell_length_b       5.72423
_cell_length_c       6.15977
_cell_angle_alpha    90
_cell_angle_beta     90
_cell_angle_gamma    90

_space_group_name_H-M_alt    "P 1"
_space_group_IT_number       1

loop_
  _space_group_symop_operation_xyz
  'x, y, z'

loop_
  _atom_site_type_symbol
  _atom_site_label
  _atom_site_symmetry_multiplicity
  _atom_site_fract_x
  _atom_site_fract_y
  _atom_site_fract_z
  _atom_site_occupancy
  Tl  Tl1       1.0  0.25000  0.69535  0.08515  1.0000
  Tl  Tl2       1.0  0.75000  0.30465  0.91485  1.0000
  Tl  Tl3       1.0  0.25000  0.19535  0.41485  1.0000
  Tl  Tl4       1.0  0.75000  0.80465  0.58515  1.0000
  Cd  Cd1       1.0  0.25000  0.50293  0.69438  1.0000
  Cd  Cd2       1.0  0.75000  0.49707  0.30562  1.0000
  Cd  Cd3       1.0  0.25000  0.00293  0.80562  1.0000
  Cd  Cd4       1.0  0.75000  0.99707  0.19438  1.0000
