data_image0
_chemical_formula_structural       Co2Au6
_chemical_formula_sum              "Co2 Au6"
_cell_length_a       5.51194
_cell_length_b       5.51194
_cell_length_c       4.36632
_cell_angle_alpha    90
_cell_angle_beta     90
_cell_angle_gamma    120

_space_group_name_H-M_alt    "P 1"
_space_group_IT_number       1

loop_
  _space_group_symop_operation_xyz
  'x, y, z'

loop_
  _atom_site_type_symbol
  _atom_site_label
  _atom_site_symmetry_multiplicity
  _atom_site_fract_x
  _atom_site_fract_y
  _atom_site_fract_z
  _atom_site_occupancy
  Co  Co1       1.0  0.33333  0.66667  0.75000  1.0000
  Co  Co2       1.0  0.66667  0.33333  0.25000  1.0000
  Au  Au1       1.0  0.16896  0.33792  0.25000  1.0000
  Au  Au2       1.0  0.66208  0.83104  0.25000  1.0000
  Au  Au3       1.0  0.16896  0.83104  0.25000  1.0000
  Au  Au4       1.0  0.83104  0.66208  0.75000  1.0000
  Au  Au5       1.0  0.33792  0.16896  0.75000  1.0000
  Au  Au6       1.0  0.83104  0.16896  0.75000  1.0000
