data_image0
_chemical_formula_structural       Co8F16
_chemical_formula_sum              "Co8 F16"
_cell_length_a       3.78918
_cell_length_b       6.02896
_cell_length_c       21.223
_cell_angle_alpha    90
_cell_angle_beta     90
_cell_angle_gamma    90

_space_group_name_H-M_alt    "P 1"
_space_group_IT_number       1

loop_
  _space_group_symop_operation_xyz
  'x, y, z'

loop_
  _atom_site_type_symbol
  _atom_site_label
  _atom_site_symmetry_multiplicity
  _atom_site_fract_x
  _atom_site_fract_y
  _atom_site_fract_z
  _atom_site_occupancy
  Co  Co1       1.0  0.25000  0.07234  0.57589  1.0000
  Co  Co2       1.0  0.25000  0.42766  0.07589  1.0000
  Co  Co3       1.0  0.75000  0.92766  0.42411  1.0000
  Co  Co4       1.0  0.75000  0.57234  0.92411  1.0000
  Co  Co5       1.0  0.25000  0.05618  0.80529  1.0000
  Co  Co6       1.0  0.25000  0.44382  0.30528  1.0000
  Co  Co7       1.0  0.75000  0.94382  0.19471  1.0000
  Co  Co8       1.0  0.75000  0.55618  0.69471  1.0000
  F   F1        1.0  0.25000  0.42832  0.86035  1.0000
  F   F2        1.0  0.25000  0.07168  0.36035  1.0000
  F   F3        1.0  0.75000  0.57168  0.13966  1.0000
  F   F4        1.0  0.75000  0.92832  0.63965  1.0000
  F   F5        1.0  0.75000  0.17858  0.73701  1.0000
  F   F6        1.0  0.75000  0.32142  0.23701  1.0000
  F   F7        1.0  0.25000  0.82142  0.26299  1.0000
  F   F8        1.0  0.25000  0.67858  0.76299  1.0000
  F   F9        1.0  0.75000  0.95250  0.87862  1.0000
  F   F10       1.0  0.75000  0.54750  0.37861  1.0000
  F   F11       1.0  0.25000  0.04750  0.12139  1.0000
  F   F12       1.0  0.25000  0.45250  0.62138  1.0000
  F   F13       1.0  0.75000  0.22362  0.50831  1.0000
  F   F14       1.0  0.75000  0.27638  0.00831  1.0000
  F   F15       1.0  0.25000  0.77638  0.49169  1.0000
  F   F16       1.0  0.25000  0.72362  0.99169  1.0000
