data_image0
_chemical_formula_structural       Co3N2
_chemical_formula_sum              "Co3 N2"
_cell_length_a       4.2347
_cell_length_b       4.2347
_cell_length_c       4.2347
_cell_angle_alpha    90.721
_cell_angle_beta     90.721
_cell_angle_gamma    90.721

_space_group_name_H-M_alt    "P 1"
_space_group_IT_number       1

loop_
  _space_group_symop_operation_xyz
  'x, y, z'

loop_
  _atom_site_type_symbol
  _atom_site_label
  _atom_site_symmetry_multiplicity
  _atom_site_fract_x
  _atom_site_fract_y
  _atom_site_fract_z
  _atom_site_occupancy
  Co  Co1       1.0  0.75200  0.24800  0.00000  1.0000
  Co  Co2       1.0  0.24800  0.00000  0.75200  1.0000
  Co  Co3       1.0  1.00000  0.75200  0.24800  1.0000
  N   N1        1.0  0.25831  0.25831  0.25831  1.0000
  N   N2        1.0  0.74169  0.74169  0.74169  1.0000
