data_image0
_chemical_formula_structural       Co12I16
_chemical_formula_sum              "Co12 I16"
_cell_length_a       8.17646
_cell_length_b       8.17646
_cell_length_c       6.02958
_cell_angle_alpha    90
_cell_angle_beta     90
_cell_angle_gamma    120

_space_group_name_H-M_alt    "P 1"
_space_group_IT_number       1

loop_
  _space_group_symop_operation_xyz
  'x, y, z'

loop_
  _atom_site_type_symbol
  _atom_site_label
  _atom_site_symmetry_multiplicity
  _atom_site_fract_x
  _atom_site_fract_y
  _atom_site_fract_z
  _atom_site_occupancy
  Co  Co1       1.0  0.56799  0.08175  0.79269  1.0000
  Co  Co2       1.0  0.51375  0.43201  0.79269  1.0000
  Co  Co3       1.0  0.91826  0.48625  0.79269  1.0000
  Co  Co4       1.0  0.43201  0.51375  0.29269  1.0000
  Co  Co5       1.0  0.48625  0.91826  0.29269  1.0000
  Co  Co6       1.0  0.08175  0.56799  0.29269  1.0000
  Co  Co7       1.0  0.08680  0.25416  0.02268  1.0000
  Co  Co8       1.0  0.16736  0.91320  0.02268  1.0000
  Co  Co9       1.0  0.74584  0.83264  0.02268  1.0000
  Co  Co10      1.0  0.91320  0.16736  0.52268  1.0000
  Co  Co11      1.0  0.83264  0.74584  0.52268  1.0000
  Co  Co12      1.0  0.25416  0.08680  0.52268  1.0000
  I   I1        1.0  0.04508  0.65294  0.02461  1.0000
  I   I2        1.0  0.60786  0.95492  0.02461  1.0000
  I   I3        1.0  0.34706  0.39214  0.02461  1.0000
  I   I4        1.0  0.95492  0.60786  0.52461  1.0000
  I   I5        1.0  0.39214  0.34706  0.52461  1.0000
  I   I6        1.0  0.65294  0.04508  0.52461  1.0000
  I   I7        1.0  0.00230  0.31543  0.77206  1.0000
  I   I8        1.0  0.31313  0.99770  0.77206  1.0000
  I   I9        1.0  0.68457  0.68687  0.77206  1.0000
  I   I10       1.0  0.99770  0.31313  0.27206  1.0000
  I   I11       1.0  0.68687  0.68457  0.27206  1.0000
  I   I12       1.0  0.31543  0.00230  0.27206  1.0000
  I   I13       1.0  0.00000  0.00000  0.02028  1.0000
  I   I14       1.0  0.00000  0.00000  0.52028  1.0000
  I   I15       1.0  0.33333  0.66667  0.35802  1.0000
  I   I16       1.0  0.66667  0.33333  0.85802  1.0000
