data_image0
_chemical_formula_structural       Co6I20
_chemical_formula_sum              "Co6 I20"
_cell_length_a       10.9073
_cell_length_b       10.9073
_cell_length_c       4.79678
_cell_angle_alpha    90
_cell_angle_beta     90
_cell_angle_gamma    120

_space_group_name_H-M_alt    "P 1"
_space_group_IT_number       1

loop_
  _space_group_symop_operation_xyz
  'x, y, z'

loop_
  _atom_site_type_symbol
  _atom_site_label
  _atom_site_symmetry_multiplicity
  _atom_site_fract_x
  _atom_site_fract_y
  _atom_site_fract_z
  _atom_site_occupancy
  Co  Co1       1.0  0.63862  0.74401  0.25000  1.0000
  Co  Co2       1.0  0.25599  0.89461  0.25000  1.0000
  Co  Co3       1.0  0.10539  0.36138  0.25000  1.0000
  Co  Co4       1.0  0.36138  0.25599  0.75000  1.0000
  Co  Co5       1.0  0.74401  0.10539  0.75000  1.0000
  Co  Co6       1.0  0.89461  0.63862  0.75000  1.0000
  I   I1        1.0  0.87750  0.05814  0.25000  1.0000
  I   I2        1.0  0.94186  0.81935  0.25000  1.0000
  I   I3        1.0  0.18065  0.12250  0.25000  1.0000
  I   I4        1.0  0.12250  0.94186  0.75000  1.0000
  I   I5        1.0  0.05814  0.18065  0.75000  1.0000
  I   I6        1.0  0.81935  0.87749  0.75000  1.0000
  I   I7        1.0  0.56451  0.97423  0.25000  1.0000
  I   I8        1.0  0.02577  0.59028  0.25000  1.0000
  I   I9        1.0  0.40972  0.43549  0.25000  1.0000
  I   I10       1.0  0.43549  0.02576  0.75000  1.0000
  I   I11       1.0  0.97423  0.40972  0.75000  1.0000
  I   I12       1.0  0.59028  0.56451  0.75000  1.0000
  I   I13       1.0  0.79599  0.28445  0.25000  1.0000
  I   I14       1.0  0.71555  0.51154  0.25000  1.0000
  I   I15       1.0  0.48846  0.20401  0.25000  1.0000
  I   I16       1.0  0.20401  0.71555  0.75000  1.0000
  I   I17       1.0  0.28445  0.48846  0.75000  1.0000
  I   I18       1.0  0.51154  0.79599  0.75000  1.0000
  I   I19       1.0  0.66667  0.33333  0.75000  1.0000
  I   I20       1.0  0.33333  0.66667  0.25000  1.0000
