data_image0
_chemical_formula_structural       Br10Cu4
_chemical_formula_sum              "Br10 Cu4"
_cell_length_a       7.02656
_cell_length_b       7.02656
_cell_length_c       6.14277
_cell_angle_alpha    64.418
_cell_angle_beta     64.418
_cell_angle_gamma    45.3424

_space_group_name_H-M_alt    "P 1"
_space_group_IT_number       1

loop_
  _space_group_symop_operation_xyz
  'x, y, z'

loop_
  _atom_site_type_symbol
  _atom_site_label
  _atom_site_symmetry_multiplicity
  _atom_site_fract_x
  _atom_site_fract_y
  _atom_site_fract_z
  _atom_site_occupancy
  Br  Br1       1.0  0.24800  0.75200  0.00000  1.0000
  Br  Br2       1.0  0.75200  0.24800  0.00000  1.0000
  Br  Br3       1.0  0.62779  0.62779  0.14950  1.0000
  Br  Br4       1.0  0.37221  0.37221  0.85050  1.0000
  Br  Br5       1.0  0.10183  0.10183  0.59473  1.0000
  Br  Br6       1.0  0.89817  0.89817  0.40527  1.0000
  Br  Br7       1.0  0.47630  0.98172  0.74141  1.0000
  Br  Br8       1.0  0.01828  0.52370  0.25859  1.0000
  Br  Br9       1.0  0.98172  0.47630  0.74141  1.0000
  Br  Br10      1.0  0.52370  0.01828  0.25859  1.0000
  Cu  Cu1       1.0  0.12691  0.12691  0.15058  1.0000
  Cu  Cu2       1.0  0.87309  0.87309  0.84942  1.0000
  Cu  Cu3       1.0  0.60283  0.60283  0.59735  1.0000
  Cu  Cu4       1.0  0.39717  0.39717  0.40265  1.0000
