data_image0
_chemical_formula_structural       I4Cu2
_chemical_formula_sum              "I4 Cu2"
_cell_length_a       3.05306
_cell_length_b       5.47791
_cell_length_c       6.25976
_cell_angle_alpha    90
_cell_angle_beta     90
_cell_angle_gamma    90

_space_group_name_H-M_alt    "P 1"
_space_group_IT_number       1

loop_
  _space_group_symop_operation_xyz
  'x, y, z'

loop_
  _atom_site_type_symbol
  _atom_site_label
  _atom_site_symmetry_multiplicity
  _atom_site_fract_x
  _atom_site_fract_y
  _atom_site_fract_z
  _atom_site_occupancy
  I   I1        1.0  0.50000  0.32899  0.86509  1.0000
  I   I2        1.0  0.50000  0.67101  0.13491  1.0000
  I   I3        1.0  0.00000  0.17101  0.36509  1.0000
  I   I4        1.0  0.00000  0.82899  0.63491  1.0000
  Cu  Cu1       1.0  0.50000  0.50000  0.50000  1.0000
  Cu  Cu2       1.0  0.00000  0.00000  0.00000  1.0000
