data_image0
_chemical_formula_structural       Cu3Se4
_chemical_formula_sum              "Cu3 Se4"
_cell_length_a       6.47249
_cell_length_b       6.47249
_cell_length_c       5.27045
_cell_angle_alpha    75.6051
_cell_angle_beta     75.6051
_cell_angle_gamma    36.8732

_space_group_name_H-M_alt    "P 1"
_space_group_IT_number       1

loop_
  _space_group_symop_operation_xyz
  'x, y, z'

loop_
  _atom_site_type_symbol
  _atom_site_label
  _atom_site_symmetry_multiplicity
  _atom_site_fract_x
  _atom_site_fract_y
  _atom_site_fract_z
  _atom_site_occupancy
  Cu  Cu1       1.0  0.00000  0.00000  0.00000  1.0000
  Cu  Cu2       1.0  0.78414  0.78414  0.33650  1.0000
  Cu  Cu3       1.0  0.21586  0.21586  0.66350  1.0000
  Se  Se1       1.0  0.57173  0.57173  0.68744  1.0000
  Se  Se2       1.0  0.42827  0.42827  0.31256  1.0000
  Se  Se3       1.0  0.82817  0.82817  0.81222  1.0000
  Se  Se4       1.0  0.17183  0.17183  0.18778  1.0000
