data_image0
_chemical_formula_structural       S8Cu12
_chemical_formula_sum              "S8 Cu12"
_cell_length_a       5.73521
_cell_length_b       5.73521
_cell_length_c       14.2591
_cell_angle_alpha    90
_cell_angle_beta     90
_cell_angle_gamma    120

_space_group_name_H-M_alt    "P 1"
_space_group_IT_number       1

loop_
  _space_group_symop_operation_xyz
  'x, y, z'

loop_
  _atom_site_type_symbol
  _atom_site_label
  _atom_site_symmetry_multiplicity
  _atom_site_fract_x
  _atom_site_fract_y
  _atom_site_fract_z
  _atom_site_occupancy
  S   S1        1.0  0.00000  0.00000  0.25000  1.0000
  S   S2        1.0  0.00000  0.00000  0.75000  1.0000
  S   S3        1.0  0.33333  0.66667  0.25000  1.0000
  S   S4        1.0  0.66667  0.33333  0.75000  1.0000
  S   S5        1.0  0.33333  0.66667  0.58933  1.0000
  S   S6        1.0  0.66667  0.33333  0.08933  1.0000
  S   S7        1.0  0.66667  0.33333  0.41067  1.0000
  S   S8        1.0  0.33333  0.66667  0.91067  1.0000
  Cu  Cu1       1.0  0.16540  0.33080  0.41277  1.0000
  Cu  Cu2       1.0  0.16540  0.83460  0.41277  1.0000
  Cu  Cu3       1.0  0.66920  0.83460  0.41277  1.0000
  Cu  Cu4       1.0  0.83460  0.16540  0.91277  1.0000
  Cu  Cu5       1.0  0.33080  0.16540  0.91277  1.0000
  Cu  Cu6       1.0  0.83460  0.66920  0.91277  1.0000
  Cu  Cu7       1.0  0.83460  0.66920  0.58723  1.0000
  Cu  Cu8       1.0  0.83460  0.16540  0.58723  1.0000
  Cu  Cu9       1.0  0.33080  0.16540  0.58723  1.0000
  Cu  Cu10      1.0  0.16540  0.83460  0.08723  1.0000
  Cu  Cu11      1.0  0.66920  0.83460  0.08723  1.0000
  Cu  Cu12      1.0  0.16540  0.33080  0.08723  1.0000
