data_image0
_chemical_formula_structural       Cu8Se16
_chemical_formula_sum              "Cu8 Se16"
_cell_length_a       5.68957
_cell_length_b       8.33322
_cell_length_c       11.3739
_cell_angle_alpha    90
_cell_angle_beta     90
_cell_angle_gamma    90

_space_group_name_H-M_alt    "P 1"
_space_group_IT_number       1

loop_
  _space_group_symop_operation_xyz
  'x, y, z'

loop_
  _atom_site_type_symbol
  _atom_site_label
  _atom_site_symmetry_multiplicity
  _atom_site_fract_x
  _atom_site_fract_y
  _atom_site_fract_z
  _atom_site_occupancy
  Cu  Cu1       1.0  0.50785  0.87298  0.12597  1.0000
  Cu  Cu2       1.0  0.99215  0.62702  0.62597  1.0000
  Cu  Cu3       1.0  0.99215  0.37298  0.87403  1.0000
  Cu  Cu4       1.0  0.50785  0.12702  0.37403  1.0000
  Cu  Cu5       1.0  0.49214  0.12702  0.87403  1.0000
  Cu  Cu6       1.0  0.00785  0.37298  0.37403  1.0000
  Cu  Cu7       1.0  0.00785  0.62702  0.12597  1.0000
  Cu  Cu8       1.0  0.49214  0.87298  0.62597  1.0000
  Se  Se1       1.0  0.48331  0.50000  0.25000  1.0000
  Se  Se2       1.0  0.01669  0.00000  0.75000  1.0000
  Se  Se3       1.0  0.51669  0.50000  0.75000  1.0000
  Se  Se4       1.0  0.98331  0.00000  0.25000  1.0000
  Se  Se5       1.0  0.28644  0.77231  0.37478  1.0000
  Se  Se6       1.0  0.21355  0.72769  0.87478  1.0000
  Se  Se7       1.0  0.21355  0.27231  0.62522  1.0000
  Se  Se8       1.0  0.28644  0.22769  0.12522  1.0000
  Se  Se9       1.0  0.71356  0.22769  0.62522  1.0000
  Se  Se10      1.0  0.78644  0.27231  0.12522  1.0000
  Se  Se11      1.0  0.78644  0.72769  0.37478  1.0000
  Se  Se12      1.0  0.71356  0.77231  0.87478  1.0000
  Se  Se13      1.0  0.50000  0.50000  0.00000  1.0000
  Se  Se14      1.0  0.00000  0.00000  0.50000  1.0000
  Se  Se15      1.0  0.00000  0.00000  0.00000  1.0000
  Se  Se16      1.0  0.50000  0.50000  0.50000  1.0000
