data_image0
_chemical_formula_structural       Se4Cu4
_chemical_formula_sum              "Se4 Cu4"
_cell_length_a       3.46907
_cell_length_b       5.64506
_cell_length_c       6.16174
_cell_angle_alpha    90
_cell_angle_beta     90
_cell_angle_gamma    90

_space_group_name_H-M_alt    "P 1"
_space_group_IT_number       1

loop_
  _space_group_symop_operation_xyz
  'x, y, z'

loop_
  _atom_site_type_symbol
  _atom_site_label
  _atom_site_symmetry_multiplicity
  _atom_site_fract_x
  _atom_site_fract_y
  _atom_site_fract_z
  _atom_site_occupancy
  Se  Se1       1.0  0.25000  0.67681  0.07272  1.0000
  Se  Se2       1.0  0.75000  0.32319  0.92727  1.0000
  Se  Se3       1.0  0.25000  0.17681  0.42728  1.0000
  Se  Se4       1.0  0.75000  0.82319  0.57273  1.0000
  Cu  Cu1       1.0  0.25000  0.50399  0.69088  1.0000
  Cu  Cu2       1.0  0.75000  0.49601  0.30912  1.0000
  Cu  Cu3       1.0  0.25000  0.00399  0.80912  1.0000
  Cu  Cu4       1.0  0.75000  0.99601  0.19088  1.0000
