data_image0
_chemical_formula_structural       S8Cu4
_chemical_formula_sum              "S8 Cu4"
_cell_length_a       6.63961
_cell_length_b       6.69359
_cell_length_c       6.79475
_cell_angle_alpha    65.0722
_cell_angle_beta     90
_cell_angle_gamma    90

_space_group_name_H-M_alt    "P 1"
_space_group_IT_number       1

loop_
  _space_group_symop_operation_xyz
  'x, y, z'

loop_
  _atom_site_type_symbol
  _atom_site_label
  _atom_site_symmetry_multiplicity
  _atom_site_fract_x
  _atom_site_fract_y
  _atom_site_fract_z
  _atom_site_occupancy
  S   S1        1.0  0.13497  0.14907  0.12116  1.0000
  S   S2        1.0  0.63497  0.85093  0.37884  1.0000
  S   S3        1.0  0.86503  0.85093  0.87884  1.0000
  S   S4        1.0  0.36503  0.14907  0.62116  1.0000
  S   S5        1.0  0.63745  0.34461  0.82130  1.0000
  S   S6        1.0  0.13745  0.65539  0.67870  1.0000
  S   S7        1.0  0.36255  0.65539  0.17870  1.0000
  S   S8        1.0  0.86255  0.34461  0.32130  1.0000
  Cu  Cu1       1.0  0.49902  0.27169  0.20893  1.0000
  Cu  Cu2       1.0  0.99902  0.72831  0.29107  1.0000
  Cu  Cu3       1.0  0.50098  0.72831  0.79107  1.0000
  Cu  Cu4       1.0  0.00098  0.27169  0.70893  1.0000
