data_image0
_chemical_formula_structural       Cu9Tl8
_chemical_formula_sum              "Cu9 Tl8"
_cell_length_a       7.3125
_cell_length_b       7.3125
_cell_length_c       7.3125
_cell_angle_alpha    60
_cell_angle_beta     60
_cell_angle_gamma    60

_space_group_name_H-M_alt    "P 1"
_space_group_IT_number       1

loop_
  _space_group_symop_operation_xyz
  'x, y, z'

loop_
  _atom_site_type_symbol
  _atom_site_label
  _atom_site_symmetry_multiplicity
  _atom_site_fract_x
  _atom_site_fract_y
  _atom_site_fract_z
  _atom_site_occupancy
  Cu  Cu1       1.0  0.50000  0.50000  0.50000  1.0000
  Cu  Cu2       1.0  0.87661  0.37018  0.87661  1.0000
  Cu  Cu3       1.0  0.12339  0.12339  0.62982  1.0000
  Cu  Cu4       1.0  0.62982  0.12339  0.12340  1.0000
  Cu  Cu5       1.0  0.12340  0.12340  0.12340  1.0000
  Cu  Cu6       1.0  0.37018  0.87661  0.87661  1.0000
  Cu  Cu7       1.0  0.87661  0.87661  0.87661  1.0000
  Cu  Cu8       1.0  0.87661  0.87661  0.37018  1.0000
  Cu  Cu9       1.0  0.12339  0.62982  0.12340  1.0000
  Tl  Tl1       1.0  0.75000  0.75000  0.75000  1.0000
  Tl  Tl2       1.0  0.25000  0.25000  0.25000  1.0000
  Tl  Tl3       1.0  0.26371  0.26371  0.73629  1.0000
  Tl  Tl4       1.0  0.26371  0.73629  0.73629  1.0000
  Tl  Tl5       1.0  0.73629  0.26371  0.26371  1.0000
  Tl  Tl6       1.0  0.26371  0.73629  0.26371  1.0000
  Tl  Tl7       1.0  0.73629  0.26371  0.73629  1.0000
  Tl  Tl8       1.0  0.73629  0.73629  0.26371  1.0000
