data_image0
_chemical_formula_structural       Cu8Tl16
_chemical_formula_sum              "Cu8 Tl16"
_cell_length_a       3.8069
_cell_length_b       6.0215
_cell_length_c       21.2627
_cell_angle_alpha    90
_cell_angle_beta     90
_cell_angle_gamma    90

_space_group_name_H-M_alt    "P 1"
_space_group_IT_number       1

loop_
  _space_group_symop_operation_xyz
  'x, y, z'

loop_
  _atom_site_type_symbol
  _atom_site_label
  _atom_site_symmetry_multiplicity
  _atom_site_fract_x
  _atom_site_fract_y
  _atom_site_fract_z
  _atom_site_occupancy
  Cu  Cu1       1.0  0.25000  0.94138  0.80501  1.0000
  Cu  Cu2       1.0  0.75000  0.05862  0.19500  1.0000
  Cu  Cu3       1.0  0.75000  0.44138  0.69500  1.0000
  Cu  Cu4       1.0  0.25000  0.55862  0.30501  1.0000
  Cu  Cu5       1.0  0.25000  0.93044  0.57656  1.0000
  Cu  Cu6       1.0  0.75000  0.06956  0.42344  1.0000
  Cu  Cu7       1.0  0.75000  0.43044  0.92344  1.0000
  Cu  Cu8       1.0  0.25000  0.56956  0.07656  1.0000
  Tl  Tl1       1.0  0.25000  0.57254  0.86158  1.0000
  Tl  Tl2       1.0  0.75000  0.42746  0.13842  1.0000
  Tl  Tl3       1.0  0.75000  0.07253  0.63842  1.0000
  Tl  Tl4       1.0  0.25000  0.92746  0.36158  1.0000
  Tl  Tl5       1.0  0.25000  0.18274  0.26131  1.0000
  Tl  Tl6       1.0  0.75000  0.81726  0.73869  1.0000
  Tl  Tl7       1.0  0.75000  0.68274  0.23869  1.0000
  Tl  Tl8       1.0  0.25000  0.31726  0.76131  1.0000
  Tl  Tl9       1.0  0.25000  0.27732  0.99079  1.0000
  Tl  Tl10      1.0  0.75000  0.72268  0.00921  1.0000
  Tl  Tl11      1.0  0.75000  0.77732  0.50921  1.0000
  Tl  Tl12      1.0  0.25000  0.22268  0.49079  1.0000
  Tl  Tl13      1.0  0.25000  0.95193  0.12200  1.0000
  Tl  Tl14      1.0  0.75000  0.04806  0.87800  1.0000
  Tl  Tl15      1.0  0.75000  0.45193  0.37800  1.0000
  Tl  Tl16      1.0  0.25000  0.54807  0.62200  1.0000
