data_image0
_chemical_formula_structural       Fe3N6
_chemical_formula_sum              "Fe3 N6"
_cell_length_a       4.5647
_cell_length_b       4.5647
_cell_length_c       6.37176
_cell_angle_alpha    90
_cell_angle_beta     90
_cell_angle_gamma    120

_space_group_name_H-M_alt    "P 1"
_space_group_IT_number       1

loop_
  _space_group_symop_operation_xyz
  'x, y, z'

loop_
  _atom_site_type_symbol
  _atom_site_label
  _atom_site_symmetry_multiplicity
  _atom_site_fract_x
  _atom_site_fract_y
  _atom_site_fract_z
  _atom_site_occupancy
  Fe  Fe1       1.0  0.00000  0.50000  0.16667  1.0000
  Fe  Fe2       1.0  0.50000  0.50000  0.83333  1.0000
  Fe  Fe3       1.0  0.50000  0.00000  0.50000  1.0000
  N   N1        1.0  0.83715  0.67431  0.50000  1.0000
  N   N2        1.0  0.16285  0.83715  0.83333  1.0000
  N   N3        1.0  0.67430  0.83715  0.16667  1.0000
  N   N4        1.0  0.16285  0.32570  0.50000  1.0000
  N   N5        1.0  0.83715  0.16285  0.83333  1.0000
  N   N6        1.0  0.32569  0.16285  0.16667  1.0000
