data_image0
_chemical_formula_structural       Fe2N4
_chemical_formula_sum              "Fe2 N4"
_cell_length_a       3.64294
_cell_length_b       4.89585
_cell_length_c       5.82129
_cell_angle_alpha    90
_cell_angle_beta     90
_cell_angle_gamma    90

_space_group_name_H-M_alt    "P 1"
_space_group_IT_number       1

loop_
  _space_group_symop_operation_xyz
  'x, y, z'

loop_
  _atom_site_type_symbol
  _atom_site_label
  _atom_site_symmetry_multiplicity
  _atom_site_fract_x
  _atom_site_fract_y
  _atom_site_fract_z
  _atom_site_occupancy
  Fe  Fe1       1.0  0.00000  0.00000  0.00000  1.0000
  Fe  Fe2       1.0  0.50000  0.50000  0.50000  1.0000
  N   N1        1.0  0.00000  0.21810  0.36909  1.0000
  N   N2        1.0  0.00000  0.78190  0.63091  1.0000
  N   N3        1.0  0.50000  0.71810  0.13091  1.0000
  N   N4        1.0  0.50000  0.28190  0.86909  1.0000
