data_image0
_chemical_formula_structural       ClHf
_chemical_formula_sum              "Cl1 Hf1"
_cell_length_a       4.9466
_cell_length_b       4.9466
_cell_length_c       4.9466
_cell_angle_alpha    33.7433
_cell_angle_beta     33.7433
_cell_angle_gamma    33.7433

_space_group_name_H-M_alt    "P 1"
_space_group_IT_number       1

loop_
  _space_group_symop_operation_xyz
  'x, y, z'

loop_
  _atom_site_type_symbol
  _atom_site_label
  _atom_site_symmetry_multiplicity
  _atom_site_fract_x
  _atom_site_fract_y
  _atom_site_fract_z
  _atom_site_occupancy
  Cl  Cl1       1.0  0.00000  0.00000  0.00000  1.0000
  Hf  Hf1       1.0  0.50000  0.50000  0.50000  1.0000
