data_image0
_chemical_formula_structural       In2F6
_chemical_formula_sum              "In2 F6"
_cell_length_a       4.83774
_cell_length_b       5.40768
_cell_length_c       5.8496
_cell_angle_alpha    90
_cell_angle_beta     90
_cell_angle_gamma    90

_space_group_name_H-M_alt    "P 1"
_space_group_IT_number       1

loop_
  _space_group_symop_operation_xyz
  'x, y, z'

loop_
  _atom_site_type_symbol
  _atom_site_label
  _atom_site_symmetry_multiplicity
  _atom_site_fract_x
  _atom_site_fract_y
  _atom_site_fract_z
  _atom_site_occupancy
  In  In1       1.0  0.50000  0.33222  0.50000  1.0000
  In  In2       1.0  0.00000  0.66778  0.00000  1.0000
  F   F1        1.0  0.00000  0.66650  0.50000  1.0000
  F   F2        1.0  0.50000  0.33350  0.00000  1.0000
  F   F3        1.0  0.00000  0.16650  0.74821  1.0000
  F   F4        1.0  0.50000  0.83350  0.75179  1.0000
  F   F5        1.0  0.00000  0.16650  0.25179  1.0000
  F   F6        1.0  0.50000  0.83350  0.24821  1.0000
