data_image0
_chemical_formula_structural       Se4Ir2
_chemical_formula_sum              "Se4 Ir2"
_cell_length_a       5.69053
_cell_length_b       5.69053
_cell_length_c       5.69053
_cell_angle_alpha    105.649
_cell_angle_beta     105.649
_cell_angle_gamma    117.42

_space_group_name_H-M_alt    "P 1"
_space_group_IT_number       1

loop_
  _space_group_symop_operation_xyz
  'x, y, z'

loop_
  _atom_site_type_symbol
  _atom_site_label
  _atom_site_symmetry_multiplicity
  _atom_site_fract_x
  _atom_site_fract_y
  _atom_site_fract_z
  _atom_site_occupancy
  Se  Se1       1.0  0.33454  0.83454  0.16908  1.0000
  Se  Se2       1.0  0.16546  0.33454  0.50000  1.0000
  Se  Se3       1.0  0.83454  0.66546  0.50000  1.0000
  Se  Se4       1.0  0.66546  0.16546  0.83092  1.0000
  Ir  Ir1       1.0  0.75000  0.75000  0.00000  1.0000
  Ir  Ir2       1.0  0.25000  0.25000  0.00000  1.0000
