data_image0
_chemical_formula_structural       Rh2Br6
_chemical_formula_sum              "Rh2 Br6"
_cell_length_a       5.60359
_cell_length_b       5.60359
_cell_length_c       5.60359
_cell_angle_alpha    120.675
_cell_angle_beta     120.675
_cell_angle_gamma    88.8347

_space_group_name_H-M_alt    "P 1"
_space_group_IT_number       1

loop_
  _space_group_symop_operation_xyz
  'x, y, z'

loop_
  _atom_site_type_symbol
  _atom_site_label
  _atom_site_symmetry_multiplicity
  _atom_site_fract_x
  _atom_site_fract_y
  _atom_site_fract_z
  _atom_site_occupancy
  Rh  Rh1       1.0  0.75000  0.25000  0.50000  1.0000
  Rh  Rh2       1.0  0.25000  0.75000  0.50000  1.0000
  Br  Br1       1.0  0.75000  0.75000  1.00000  1.0000
  Br  Br2       1.0  0.25000  0.25000  0.00000  1.0000
  Br  Br3       1.0  0.20659  0.70659  0.91319  1.0000
  Br  Br4       1.0  0.79341  0.29341  0.08681  1.0000
  Br  Br5       1.0  0.70659  0.79341  0.50000  1.0000
  Br  Br6       1.0  0.29341  0.20659  0.50000  1.0000
