data_image0
_chemical_formula_structural       Rh6Au8
_chemical_formula_sum              "Rh6 Au8"
_cell_length_a       7.06502
_cell_length_b       7.06502
_cell_length_c       7.06502
_cell_angle_alpha    60
_cell_angle_beta     60
_cell_angle_gamma    60

_space_group_name_H-M_alt    "P 1"
_space_group_IT_number       1

loop_
  _space_group_symop_operation_xyz
  'x, y, z'

loop_
  _atom_site_type_symbol
  _atom_site_label
  _atom_site_symmetry_multiplicity
  _atom_site_fract_x
  _atom_site_fract_y
  _atom_site_fract_z
  _atom_site_occupancy
  Rh  Rh1       1.0  0.50000  0.50000  0.50000  1.0000
  Rh  Rh2       1.0  0.12500  0.12500  0.62500  1.0000
  Rh  Rh3       1.0  0.12500  0.12500  0.12500  1.0000
  Rh  Rh4       1.0  0.12500  0.62500  0.12500  1.0000
  Rh  Rh5       1.0  0.75000  0.75000  0.75000  1.0000
  Rh  Rh6       1.0  0.62500  0.12500  0.12500  1.0000
  Au  Au1       1.0  0.88401  0.88401  0.88401  1.0000
  Au  Au2       1.0  0.88401  0.88401  0.34796  1.0000
  Au  Au3       1.0  0.36599  0.36599  0.36599  1.0000
  Au  Au4       1.0  0.36599  0.36599  0.90204  1.0000
  Au  Au5       1.0  0.88401  0.34796  0.88401  1.0000
  Au  Au6       1.0  0.36599  0.90204  0.36599  1.0000
  Au  Au7       1.0  0.90204  0.36599  0.36599  1.0000
  Au  Au8       1.0  0.34796  0.88401  0.88401  1.0000
