data_image0
_chemical_formula_structural       Cl8Rh12
_chemical_formula_sum              "Cl8 Rh12"
_cell_length_a       5.73521
_cell_length_b       5.73521
_cell_length_c       14.2591
_cell_angle_alpha    90
_cell_angle_beta     90
_cell_angle_gamma    120

_space_group_name_H-M_alt    "P 1"
_space_group_IT_number       1

loop_
  _space_group_symop_operation_xyz
  'x, y, z'

loop_
  _atom_site_type_symbol
  _atom_site_label
  _atom_site_symmetry_multiplicity
  _atom_site_fract_x
  _atom_site_fract_y
  _atom_site_fract_z
  _atom_site_occupancy
  Cl  Cl1       1.0  0.00000  0.00000  0.25000  1.0000
  Cl  Cl2       1.0  0.00000  0.00000  0.75000  1.0000
  Cl  Cl3       1.0  0.33333  0.66667  0.25000  1.0000
  Cl  Cl4       1.0  0.66667  0.33333  0.75000  1.0000
  Cl  Cl5       1.0  0.33333  0.66667  0.58933  1.0000
  Cl  Cl6       1.0  0.66667  0.33333  0.08933  1.0000
  Cl  Cl7       1.0  0.66667  0.33333  0.41067  1.0000
  Cl  Cl8       1.0  0.33333  0.66667  0.91067  1.0000
  Rh  Rh1       1.0  0.16540  0.33080  0.41277  1.0000
  Rh  Rh2       1.0  0.16540  0.83460  0.41277  1.0000
  Rh  Rh3       1.0  0.66920  0.83460  0.41277  1.0000
  Rh  Rh4       1.0  0.83460  0.16540  0.91277  1.0000
  Rh  Rh5       1.0  0.33080  0.16540  0.91277  1.0000
  Rh  Rh6       1.0  0.83460  0.66920  0.91277  1.0000
  Rh  Rh7       1.0  0.83460  0.66920  0.58723  1.0000
  Rh  Rh8       1.0  0.83460  0.16540  0.58723  1.0000
  Rh  Rh9       1.0  0.33080  0.16540  0.58723  1.0000
  Rh  Rh10      1.0  0.16540  0.83460  0.08723  1.0000
  Rh  Rh11      1.0  0.66920  0.83460  0.08723  1.0000
  Rh  Rh12      1.0  0.16540  0.33080  0.08723  1.0000
