data_image0
_chemical_formula_structural       Rh4I8
_chemical_formula_sum              "Rh4 I8"
_cell_length_a       5.93587
_cell_length_b       5.93587
_cell_length_c       5.93587
_cell_angle_alpha    90
_cell_angle_beta     90
_cell_angle_gamma    90

_space_group_name_H-M_alt    "P 1"
_space_group_IT_number       1

loop_
  _space_group_symop_operation_xyz
  'x, y, z'

loop_
  _atom_site_type_symbol
  _atom_site_label
  _atom_site_symmetry_multiplicity
  _atom_site_fract_x
  _atom_site_fract_y
  _atom_site_fract_z
  _atom_site_occupancy
  Rh  Rh1       1.0  0.00000  0.00000  0.00000  1.0000
  Rh  Rh2       1.0  0.50000  0.00000  0.50000  1.0000
  Rh  Rh3       1.0  0.50000  0.50000  0.00000  1.0000
  Rh  Rh4       1.0  0.00000  0.50000  0.50000  1.0000
  I   I1        1.0  0.37688  0.37688  0.37688  1.0000
  I   I2        1.0  0.12312  0.62312  0.87688  1.0000
  I   I3        1.0  0.87688  0.12312  0.62312  1.0000
  I   I4        1.0  0.62312  0.87688  0.12312  1.0000
  I   I5        1.0  0.62312  0.62312  0.62312  1.0000
  I   I6        1.0  0.87688  0.37688  0.12312  1.0000
  I   I7        1.0  0.12312  0.87688  0.37688  1.0000
  I   I8        1.0  0.37688  0.12312  0.87688  1.0000
