data_image0
_chemical_formula_structural       RuSe4
_chemical_formula_sum              "Ru1 Se4"
_cell_length_a       5.15791
_cell_length_b       5.15791
_cell_length_c       5.15791
_cell_angle_alpha    99.1728
_cell_angle_beta     99.1728
_cell_angle_gamma    132.936

_space_group_name_H-M_alt    "P 1"
_space_group_IT_number       1

loop_
  _space_group_symop_operation_xyz
  'x, y, z'

loop_
  _atom_site_type_symbol
  _atom_site_label
  _atom_site_symmetry_multiplicity
  _atom_site_fract_x
  _atom_site_fract_y
  _atom_site_fract_z
  _atom_site_occupancy
  Ru  Ru1       1.0  0.00000  0.00000  0.00000  1.0000
  Se  Se1       1.0  0.79988  0.59958  0.39946  1.0000
  Se  Se2       1.0  0.40042  0.79988  0.20030  1.0000
  Se  Se3       1.0  0.59958  0.20012  0.79970  1.0000
  Se  Se4       1.0  0.20012  0.40042  0.60054  1.0000
