data_image0
_chemical_formula_structural       Tl9Ru13
_chemical_formula_sum              "Tl9 Ru13"
_cell_length_a       9.16591
_cell_length_b       9.16591
_cell_length_c       5.77193
_cell_angle_alpha    90
_cell_angle_beta     90
_cell_angle_gamma    120

_space_group_name_H-M_alt    "P 1"
_space_group_IT_number       1

loop_
  _space_group_symop_operation_xyz
  'x, y, z'

loop_
  _atom_site_type_symbol
  _atom_site_label
  _atom_site_symmetry_multiplicity
  _atom_site_fract_x
  _atom_site_fract_y
  _atom_site_fract_z
  _atom_site_occupancy
  Tl  Tl1       1.0  0.00000  0.00000  0.50000  1.0000
  Tl  Tl2       1.0  0.33333  0.66667  0.74947  1.0000
  Tl  Tl3       1.0  0.66667  0.33333  0.25053  1.0000
  Tl  Tl4       1.0  0.19270  0.80730  0.24659  1.0000
  Tl  Tl5       1.0  0.19270  0.38540  0.24659  1.0000
  Tl  Tl6       1.0  0.61460  0.80730  0.24659  1.0000
  Tl  Tl7       1.0  0.38540  0.19270  0.75341  1.0000
  Tl  Tl8       1.0  0.80730  0.61460  0.75341  1.0000
  Tl  Tl9       1.0  0.80730  0.19270  0.75341  1.0000
  Ru  Ru1       1.0  0.00000  0.00000  0.00000  1.0000
  Ru  Ru2       1.0  0.50000  0.00000  0.00000  1.0000
  Ru  Ru3       1.0  0.00000  0.50000  0.00000  1.0000
  Ru  Ru4       1.0  0.50000  0.50000  0.00000  1.0000
  Ru  Ru5       1.0  0.50000  0.00000  0.50000  1.0000
  Ru  Ru6       1.0  0.00000  0.50000  0.50000  1.0000
  Ru  Ru7       1.0  0.50000  0.50000  0.50000  1.0000
  Ru  Ru8       1.0  0.15958  0.84042  0.75308  1.0000
  Ru  Ru9       1.0  0.15958  0.31915  0.75308  1.0000
  Ru  Ru10      1.0  0.68085  0.84042  0.75308  1.0000
  Ru  Ru11      1.0  0.31915  0.15958  0.24692  1.0000
  Ru  Ru12      1.0  0.84042  0.68085  0.24692  1.0000
  Ru  Ru13      1.0  0.84042  0.15958  0.24692  1.0000
