data_image0
_chemical_formula_structural       Ag12Sb4
_chemical_formula_sum              "Ag12 Sb4"
_cell_length_a       6.27048
_cell_length_b       6.27048
_cell_length_c       6.46649
_cell_angle_alpha    90
_cell_angle_beta     90
_cell_angle_gamma    90

_space_group_name_H-M_alt    "P 1"
_space_group_IT_number       1

loop_
  _space_group_symop_operation_xyz
  'x, y, z'

loop_
  _atom_site_type_symbol
  _atom_site_label
  _atom_site_symmetry_multiplicity
  _atom_site_fract_x
  _atom_site_fract_y
  _atom_site_fract_z
  _atom_site_occupancy
  Ag  Ag1       1.0  0.50000  0.00000  0.00000  1.0000
  Ag  Ag2       1.0  0.50000  0.00000  0.50000  1.0000
  Ag  Ag3       1.0  0.00000  0.50000  0.00000  1.0000
  Ag  Ag4       1.0  0.00000  0.50000  0.50000  1.0000
  Ag  Ag5       1.0  0.65128  0.34872  0.74499  1.0000
  Ag  Ag6       1.0  0.84872  0.84872  0.75501  1.0000
  Ag  Ag7       1.0  0.15128  0.15128  0.75501  1.0000
  Ag  Ag8       1.0  0.34872  0.65128  0.74499  1.0000
  Ag  Ag9       1.0  0.34872  0.65128  0.25500  1.0000
  Ag  Ag10      1.0  0.65128  0.34872  0.25500  1.0000
  Ag  Ag11      1.0  0.84872  0.84872  0.24499  1.0000
  Ag  Ag12      1.0  0.15128  0.15128  0.24499  1.0000
  Sb  Sb1       1.0  0.84514  0.15486  0.00000  1.0000
  Sb  Sb2       1.0  0.65486  0.65486  0.50000  1.0000
  Sb  Sb3       1.0  0.34514  0.34514  0.50000  1.0000
  Sb  Sb4       1.0  0.15486  0.84514  0.00000  1.0000
