data_image0
_chemical_formula_structural       Sb14Br8
_chemical_formula_sum              "Sb14 Br8"
_cell_length_a       5.43503
_cell_length_b       7.02427
_cell_length_c       10.321
_cell_angle_alpha    90
_cell_angle_beta     90
_cell_angle_gamma    90

_space_group_name_H-M_alt    "P 1"
_space_group_IT_number       1

loop_
  _space_group_symop_operation_xyz
  'x, y, z'

loop_
  _atom_site_type_symbol
  _atom_site_label
  _atom_site_symmetry_multiplicity
  _atom_site_fract_x
  _atom_site_fract_y
  _atom_site_fract_z
  _atom_site_occupancy
  Sb  Sb1       1.0  0.34917  0.18887  0.58381  1.0000
  Sb  Sb2       1.0  0.34917  0.81112  0.41619  1.0000
  Sb  Sb3       1.0  0.65084  0.31112  0.08381  1.0000
  Sb  Sb4       1.0  0.65084  0.68888  0.91619  1.0000
  Sb  Sb5       1.0  0.00356  0.08418  0.77445  1.0000
  Sb  Sb6       1.0  0.00356  0.91581  0.22555  1.0000
  Sb  Sb7       1.0  0.99645  0.41581  0.27445  1.0000
  Sb  Sb8       1.0  0.99645  0.58418  0.72555  1.0000
  Sb  Sb9       1.0  0.33810  0.37196  0.86877  1.0000
  Sb  Sb10      1.0  0.33810  0.62804  0.13123  1.0000
  Sb  Sb11      1.0  0.66190  0.12804  0.36877  1.0000
  Sb  Sb12      1.0  0.66190  0.87196  0.63123  1.0000
  Sb  Sb13      1.0  0.67594  0.50000  0.50000  1.0000
  Sb  Sb14      1.0  0.32406  0.00000  0.00000  1.0000
  Br  Br1       1.0  0.68268  0.32414  0.72067  1.0000
  Br  Br2       1.0  0.68268  0.67586  0.27933  1.0000
  Br  Br3       1.0  0.31732  0.17586  0.22067  1.0000
  Br  Br4       1.0  0.31732  0.82414  0.77933  1.0000
  Br  Br5       1.0  0.17031  0.50000  0.50000  1.0000
  Br  Br6       1.0  0.82969  0.00000  0.00000  1.0000
  Br  Br7       1.0  0.99923  0.00000  0.50000  1.0000
  Br  Br8       1.0  0.00077  0.50000  0.00000  1.0000
