data_image0
_chemical_formula_structural       Sb3Br3
_chemical_formula_sum              "Sb3 Br3"
_cell_length_a       5.88031
_cell_length_b       5.88031
_cell_length_c       5.88031
_cell_angle_alpha    116.512
_cell_angle_beta     116.512
_cell_angle_gamma    116.512

_space_group_name_H-M_alt    "P 1"
_space_group_IT_number       1

loop_
  _space_group_symop_operation_xyz
  'x, y, z'

loop_
  _atom_site_type_symbol
  _atom_site_label
  _atom_site_symmetry_multiplicity
  _atom_site_fract_x
  _atom_site_fract_y
  _atom_site_fract_z
  _atom_site_occupancy
  Sb  Sb1       1.0  0.26352  0.00759  0.00759  1.0000
  Sb  Sb2       1.0  0.00759  0.00759  0.26352  1.0000
  Sb  Sb3       1.0  0.00759  0.26352  0.00759  1.0000
  Br  Br1       1.0  0.38458  0.72437  0.72437  1.0000
  Br  Br2       1.0  0.72437  0.72437  0.38458  1.0000
  Br  Br3       1.0  0.72437  0.38458  0.72437  1.0000
