data_image0
_chemical_formula_structural       Br4Sb2
_chemical_formula_sum              "Br4 Sb2"
_cell_length_a       5.73262
_cell_length_b       5.73262
_cell_length_c       5.73262
_cell_angle_alpha    104.211
_cell_angle_beta     104.211
_cell_angle_gamma    120.597

_space_group_name_H-M_alt    "P 1"
_space_group_IT_number       1

loop_
  _space_group_symop_operation_xyz
  'x, y, z'

loop_
  _atom_site_type_symbol
  _atom_site_label
  _atom_site_symmetry_multiplicity
  _atom_site_fract_x
  _atom_site_fract_y
  _atom_site_fract_z
  _atom_site_occupancy
  Br  Br1       1.0  0.83927  0.33927  0.17853  1.0000
  Br  Br2       1.0  0.33927  0.16073  0.50000  1.0000
  Br  Br3       1.0  0.16073  0.66073  0.82147  1.0000
  Br  Br4       1.0  0.66073  0.83927  0.50000  1.0000
  Sb  Sb1       1.0  0.25000  0.25000  0.00000  1.0000
  Sb  Sb2       1.0  0.75000  0.75000  0.00000  1.0000
