data_image0
_chemical_formula_structural       Hg9Sb13
_chemical_formula_sum              "Hg9 Sb13"
_cell_length_a       9.16591
_cell_length_b       9.16591
_cell_length_c       5.77193
_cell_angle_alpha    90
_cell_angle_beta     90
_cell_angle_gamma    120

_space_group_name_H-M_alt    "P 1"
_space_group_IT_number       1

loop_
  _space_group_symop_operation_xyz
  'x, y, z'

loop_
  _atom_site_type_symbol
  _atom_site_label
  _atom_site_symmetry_multiplicity
  _atom_site_fract_x
  _atom_site_fract_y
  _atom_site_fract_z
  _atom_site_occupancy
  Hg  Hg1       1.0  0.00000  0.00000  0.50000  1.0000
  Hg  Hg2       1.0  0.33333  0.66667  0.74947  1.0000
  Hg  Hg3       1.0  0.66667  0.33333  0.25053  1.0000
  Hg  Hg4       1.0  0.19270  0.80730  0.24659  1.0000
  Hg  Hg5       1.0  0.19270  0.38540  0.24659  1.0000
  Hg  Hg6       1.0  0.61460  0.80730  0.24659  1.0000
  Hg  Hg7       1.0  0.38540  0.19270  0.75341  1.0000
  Hg  Hg8       1.0  0.80730  0.61460  0.75341  1.0000
  Hg  Hg9       1.0  0.80730  0.19270  0.75341  1.0000
  Sb  Sb1       1.0  0.00000  0.00000  0.00000  1.0000
  Sb  Sb2       1.0  0.50000  0.00000  0.00000  1.0000
  Sb  Sb3       1.0  0.00000  0.50000  0.00000  1.0000
  Sb  Sb4       1.0  0.50000  0.50000  0.00000  1.0000
  Sb  Sb5       1.0  0.50000  0.00000  0.50000  1.0000
  Sb  Sb6       1.0  0.00000  0.50000  0.50000  1.0000
  Sb  Sb7       1.0  0.50000  0.50000  0.50000  1.0000
  Sb  Sb8       1.0  0.15958  0.84042  0.75308  1.0000
  Sb  Sb9       1.0  0.15958  0.31915  0.75308  1.0000
  Sb  Sb10      1.0  0.68085  0.84042  0.75308  1.0000
  Sb  Sb11      1.0  0.31915  0.15958  0.24692  1.0000
  Sb  Sb12      1.0  0.84042  0.68085  0.24692  1.0000
  Sb  Sb13      1.0  0.84042  0.15958  0.24692  1.0000
