data_image0
_chemical_formula_structural       Sb8Hg8
_chemical_formula_sum              "Sb8 Hg8"
_cell_length_a       6.84496
_cell_length_b       6.84496
_cell_length_c       7.03219
_cell_angle_alpha    90
_cell_angle_beta     90
_cell_angle_gamma    90

_space_group_name_H-M_alt    "P 1"
_space_group_IT_number       1

loop_
  _space_group_symop_operation_xyz
  'x, y, z'

loop_
  _atom_site_type_symbol
  _atom_site_label
  _atom_site_symmetry_multiplicity
  _atom_site_fract_x
  _atom_site_fract_y
  _atom_site_fract_z
  _atom_site_occupancy
  Sb  Sb1       1.0  0.52993  0.73903  0.00000  1.0000
  Sb  Sb2       1.0  0.26097  0.52993  0.50000  1.0000
  Sb  Sb3       1.0  0.73903  0.47007  0.50000  1.0000
  Sb  Sb4       1.0  0.47007  0.26097  0.00000  1.0000
  Sb  Sb5       1.0  0.50000  0.00000  0.50000  1.0000
  Sb  Sb6       1.0  0.00000  0.50000  0.00000  1.0000
  Sb  Sb7       1.0  0.00000  0.00000  0.75000  1.0000
  Sb  Sb8       1.0  0.00000  0.00000  0.25000  1.0000
  Hg  Hg1       1.0  0.19431  0.30739  0.77189  1.0000
  Hg  Hg2       1.0  0.69261  0.19431  0.27189  1.0000
  Hg  Hg3       1.0  0.30739  0.80568  0.27189  1.0000
  Hg  Hg4       1.0  0.80568  0.69261  0.77189  1.0000
  Hg  Hg5       1.0  0.80568  0.69261  0.22811  1.0000
  Hg  Hg6       1.0  0.30739  0.80568  0.72811  1.0000
  Hg  Hg7       1.0  0.69261  0.19431  0.72811  1.0000
  Hg  Hg8       1.0  0.19431  0.30739  0.22811  1.0000
