data_image0
_chemical_formula_structural       Sb9I13
_chemical_formula_sum              "Sb9 I13"
_cell_length_a       7.24219
_cell_length_b       7.24219
_cell_length_c       9.64372
_cell_angle_alpha    62.9556
_cell_angle_beta     62.9556
_cell_angle_gamma    76.69

_space_group_name_H-M_alt    "P 1"
_space_group_IT_number       1

loop_
  _space_group_symop_operation_xyz
  'x, y, z'

loop_
  _atom_site_type_symbol
  _atom_site_label
  _atom_site_symmetry_multiplicity
  _atom_site_fract_x
  _atom_site_fract_y
  _atom_site_fract_z
  _atom_site_occupancy
  Sb  Sb1       1.0  0.29689  0.29689  0.16810  1.0000
  Sb  Sb2       1.0  0.74710  0.17471  0.31057  1.0000
  Sb  Sb3       1.0  0.82243  0.82243  0.11761  1.0000
  Sb  Sb4       1.0  0.17757  0.17757  0.88239  1.0000
  Sb  Sb5       1.0  0.50000  0.50000  0.50000  1.0000
  Sb  Sb6       1.0  0.70311  0.70311  0.83190  1.0000
  Sb  Sb7       1.0  0.17471  0.74710  0.31057  1.0000
  Sb  Sb8       1.0  0.82529  0.25290  0.68942  1.0000
  Sb  Sb9       1.0  0.25290  0.82529  0.68942  1.0000
  I   I1        1.0  0.54269  0.06266  0.65968  1.0000
  I   I2        1.0  0.06266  0.54269  0.65968  1.0000
  I   I3        1.0  0.54616  0.54616  0.17641  1.0000
  I   I4        1.0  0.74439  0.74439  0.50716  1.0000
  I   I5        1.0  0.45731  0.93734  0.34032  1.0000
  I   I6        1.0  0.75227  0.24773  0.00000  1.0000
  I   I7        1.0  0.25561  0.25561  0.49284  1.0000
  I   I8        1.0  0.45384  0.45384  0.82359  1.0000
  I   I9        1.0  0.24773  0.75227  0.00000  1.0000
  I   I10       1.0  0.00000  0.00000  0.50000  1.0000
  I   I11       1.0  0.93734  0.45731  0.34032  1.0000
  I   I12       1.0  0.00000  0.50000  0.00000  1.0000
  I   I13       1.0  0.50000  0.00000  0.00000  1.0000
