data_image0
_chemical_formula_structural       Sb6I8
_chemical_formula_sum              "Sb6 I8"
_cell_length_a       7.06502
_cell_length_b       7.06502
_cell_length_c       7.06502
_cell_angle_alpha    60
_cell_angle_beta     60
_cell_angle_gamma    60

_space_group_name_H-M_alt    "P 1"
_space_group_IT_number       1

loop_
  _space_group_symop_operation_xyz
  'x, y, z'

loop_
  _atom_site_type_symbol
  _atom_site_label
  _atom_site_symmetry_multiplicity
  _atom_site_fract_x
  _atom_site_fract_y
  _atom_site_fract_z
  _atom_site_occupancy
  Sb  Sb1       1.0  0.50000  0.50000  0.50000  1.0000
  Sb  Sb2       1.0  0.12500  0.12500  0.62500  1.0000
  Sb  Sb3       1.0  0.12500  0.12500  0.12500  1.0000
  Sb  Sb4       1.0  0.12500  0.62500  0.12500  1.0000
  Sb  Sb5       1.0  0.75000  0.75000  0.75000  1.0000
  Sb  Sb6       1.0  0.62500  0.12500  0.12500  1.0000
  I   I1        1.0  0.88401  0.88401  0.88401  1.0000
  I   I2        1.0  0.88401  0.88401  0.34796  1.0000
  I   I3        1.0  0.36599  0.36599  0.36599  1.0000
  I   I4        1.0  0.36599  0.36599  0.90204  1.0000
  I   I5        1.0  0.88401  0.34796  0.88401  1.0000
  I   I6        1.0  0.36599  0.90204  0.36599  1.0000
  I   I7        1.0  0.90204  0.36599  0.36599  1.0000
  I   I8        1.0  0.34796  0.88401  0.88401  1.0000
