data_image0
_chemical_formula_structural       Sb8I4
_chemical_formula_sum              "Sb8 I4"
_cell_length_a       4.34744
_cell_length_b       4.74632
_cell_length_c       5.4684
_cell_angle_alpha    90
_cell_angle_beta     90
_cell_angle_gamma    90

_space_group_name_H-M_alt    "P 1"
_space_group_IT_number       1

loop_
  _space_group_symop_operation_xyz
  'x, y, z'

loop_
  _atom_site_type_symbol
  _atom_site_label
  _atom_site_symmetry_multiplicity
  _atom_site_fract_x
  _atom_site_fract_y
  _atom_site_fract_z
  _atom_site_occupancy
  Sb  Sb1       1.0  0.25082  0.08466  0.87343  1.0000
  Sb  Sb2       1.0  0.75082  0.91534  0.62657  1.0000
  Sb  Sb3       1.0  0.24918  0.58466  0.62657  1.0000
  Sb  Sb4       1.0  0.74918  0.41534  0.87343  1.0000
  Sb  Sb5       1.0  0.25082  0.58466  0.12657  1.0000
  Sb  Sb6       1.0  0.75082  0.41534  0.37343  1.0000
  Sb  Sb7       1.0  0.24918  0.08466  0.37343  1.0000
  Sb  Sb8       1.0  0.74918  0.91534  0.12657  1.0000
  I   I1        1.0  0.50000  0.75000  0.86507  1.0000
  I   I2        1.0  0.00000  0.25000  0.63493  1.0000
  I   I3        1.0  0.50000  0.25000  0.13493  1.0000
  I   I4        1.0  0.00000  0.75000  0.36507  1.0000
