data_image0
_chemical_formula_structural       Sb2Se4
_chemical_formula_sum              "Sb2 Se4"
_cell_length_a       6.0626
_cell_length_b       6.0626
_cell_length_c       6.0626
_cell_angle_alpha    115.107
_cell_angle_beta     115.107
_cell_angle_gamma    98.7067

_space_group_name_H-M_alt    "P 1"
_space_group_IT_number       1

loop_
  _space_group_symop_operation_xyz
  'x, y, z'

loop_
  _atom_site_type_symbol
  _atom_site_label
  _atom_site_symmetry_multiplicity
  _atom_site_fract_x
  _atom_site_fract_y
  _atom_site_fract_z
  _atom_site_occupancy
  Sb  Sb1       1.0  0.25000  0.25000  0.00000  1.0000
  Sb  Sb2       1.0  0.75000  0.75000  0.00000  1.0000
  Se  Se1       1.0  0.63092  0.13092  0.76183  1.0000
  Se  Se2       1.0  0.36908  0.86908  0.23817  1.0000
  Se  Se3       1.0  0.86908  0.63092  0.50000  1.0000
  Se  Se4       1.0  0.13092  0.36908  0.50000  1.0000
