data_image0
_chemical_formula_structural       Sb6Se10
_chemical_formula_sum              "Sb6 Se10"
_cell_length_a       4.24582
_cell_length_b       5.77264
_cell_length_c       11.2767
_cell_angle_alpha    90
_cell_angle_beta     90
_cell_angle_gamma    90

_space_group_name_H-M_alt    "P 1"
_space_group_IT_number       1

loop_
  _space_group_symop_operation_xyz
  'x, y, z'

loop_
  _atom_site_type_symbol
  _atom_site_label
  _atom_site_symmetry_multiplicity
  _atom_site_fract_x
  _atom_site_fract_y
  _atom_site_fract_z
  _atom_site_occupancy
  Sb  Sb1       1.0  0.50000  0.31767  0.85921  1.0000
  Sb  Sb2       1.0  0.50000  0.81767  0.64079  1.0000
  Sb  Sb3       1.0  0.00000  0.50000  0.50000  1.0000
  Sb  Sb4       1.0  0.00000  0.00000  0.00000  1.0000
  Sb  Sb5       1.0  0.50000  0.68232  0.14079  1.0000
  Sb  Sb6       1.0  0.50000  0.18232  0.35921  1.0000
  Se  Se1       1.0  0.50000  0.70663  0.38675  1.0000
  Se  Se2       1.0  0.50000  0.29337  0.61325  1.0000
  Se  Se3       1.0  0.00000  0.06069  0.75664  1.0000
  Se  Se4       1.0  0.50000  0.79337  0.88675  1.0000
  Se  Se5       1.0  0.00000  0.43931  0.25664  1.0000
  Se  Se6       1.0  0.00000  0.93931  0.24336  1.0000
  Se  Se7       1.0  0.00000  0.56069  0.74336  1.0000
  Se  Se8       1.0  0.00000  0.50000  0.00000  1.0000
  Se  Se9       1.0  0.00000  0.00000  0.50000  1.0000
  Se  Se10      1.0  0.50000  0.20663  0.11325  1.0000
