data_image0
_chemical_formula_structural       Se2Sb6
_chemical_formula_sum              "Se2 Sb6"
_cell_length_a       8.41722
_cell_length_b       8.41722
_cell_length_c       8.41722
_cell_angle_alpha    151.336
_cell_angle_beta     151.336
_cell_angle_gamma    40.9838

_space_group_name_H-M_alt    "P 1"
_space_group_IT_number       1

loop_
  _space_group_symop_operation_xyz
  'x, y, z'

loop_
  _atom_site_type_symbol
  _atom_site_label
  _atom_site_symmetry_multiplicity
  _atom_site_fract_x
  _atom_site_fract_y
  _atom_site_fract_z
  _atom_site_occupancy
  Se  Se1       1.0  0.87509  0.87509  0.00000  1.0000
  Se  Se2       1.0  0.12491  0.12491  0.00000  1.0000
  Sb  Sb1       1.0  0.00000  0.50000  0.50000  1.0000
  Sb  Sb2       1.0  0.50000  0.00000  0.50000  1.0000
  Sb  Sb3       1.0  0.75000  0.25000  0.50000  1.0000
  Sb  Sb4       1.0  0.25000  0.75000  0.50000  1.0000
  Sb  Sb5       1.0  0.62637  0.62637  0.00000  1.0000
  Sb  Sb6       1.0  0.37363  0.37363  0.00000  1.0000
