data_image0
_chemical_formula_structural       Sb6S6
_chemical_formula_sum              "Sb6 S6"
_cell_length_a       4.03037
_cell_length_b       4.03037
_cell_length_c       17.4349
_cell_angle_alpha    90
_cell_angle_beta     90
_cell_angle_gamma    120.356

_space_group_name_H-M_alt    "P 1"
_space_group_IT_number       1

loop_
  _space_group_symop_operation_xyz
  'x, y, z'

loop_
  _atom_site_type_symbol
  _atom_site_label
  _atom_site_symmetry_multiplicity
  _atom_site_fract_x
  _atom_site_fract_y
  _atom_site_fract_z
  _atom_site_occupancy
  Sb  Sb1       1.0  0.34051  0.65949  0.10791  1.0000
  Sb  Sb2       1.0  0.65949  0.34051  0.89209  1.0000
  Sb  Sb3       1.0  0.65949  0.34051  0.60791  1.0000
  Sb  Sb4       1.0  0.34051  0.65949  0.39209  1.0000
  Sb  Sb5       1.0  0.36640  0.63360  0.75000  1.0000
  Sb  Sb6       1.0  0.63360  0.36640  0.25000  1.0000
  S   S1        1.0  0.69801  0.30199  0.75000  1.0000
  S   S2        1.0  0.30199  0.69802  0.25000  1.0000
  S   S3        1.0  0.99320  0.00680  0.56957  1.0000
  S   S4        1.0  0.00680  0.99320  0.06957  1.0000
  S   S5        1.0  0.99320  0.00680  0.93043  1.0000
  S   S6        1.0  0.00680  0.99320  0.43043  1.0000
