data_image0
_chemical_formula_structural       Sn3Ag4
_chemical_formula_sum              "Sn3 Ag4"
_cell_length_a       6.24691
_cell_length_b       6.24691
_cell_length_c       6.1968
_cell_angle_alpha    61.0287
_cell_angle_beta     61.0287
_cell_angle_gamma    34.2031

_space_group_name_H-M_alt    "P 1"
_space_group_IT_number       1

loop_
  _space_group_symop_operation_xyz
  'x, y, z'

loop_
  _atom_site_type_symbol
  _atom_site_label
  _atom_site_symmetry_multiplicity
  _atom_site_fract_x
  _atom_site_fract_y
  _atom_site_fract_z
  _atom_site_occupancy
  Sn  Sn1       1.0  0.00000  0.00000  0.00000  1.0000
  Sn  Sn2       1.0  0.25987  0.25987  0.72082  1.0000
  Sn  Sn3       1.0  0.74013  0.74013  0.27918  1.0000
  Ag  Ag1       1.0  0.11837  0.11837  0.54214  1.0000
  Ag  Ag2       1.0  0.88163  0.88163  0.45786  1.0000
  Ag  Ag3       1.0  0.63551  0.63551  0.02279  1.0000
  Ag  Ag4       1.0  0.36449  0.36449  0.97721  1.0000
