data_image0
_chemical_formula_structural       Sn8Au16
_chemical_formula_sum              "Sn8 Au16"
_cell_length_a       3.78918
_cell_length_b       6.02896
_cell_length_c       21.223
_cell_angle_alpha    90
_cell_angle_beta     90
_cell_angle_gamma    90

_space_group_name_H-M_alt    "P 1"
_space_group_IT_number       1

loop_
  _space_group_symop_operation_xyz
  'x, y, z'

loop_
  _atom_site_type_symbol
  _atom_site_label
  _atom_site_symmetry_multiplicity
  _atom_site_fract_x
  _atom_site_fract_y
  _atom_site_fract_z
  _atom_site_occupancy
  Sn  Sn1       1.0  0.25000  0.07234  0.57589  1.0000
  Sn  Sn2       1.0  0.25000  0.42766  0.07589  1.0000
  Sn  Sn3       1.0  0.75000  0.92766  0.42411  1.0000
  Sn  Sn4       1.0  0.75000  0.57234  0.92411  1.0000
  Sn  Sn5       1.0  0.25000  0.05618  0.80529  1.0000
  Sn  Sn6       1.0  0.25000  0.44382  0.30528  1.0000
  Sn  Sn7       1.0  0.75000  0.94382  0.19471  1.0000
  Sn  Sn8       1.0  0.75000  0.55618  0.69471  1.0000
  Au  Au1       1.0  0.25000  0.42832  0.86035  1.0000
  Au  Au2       1.0  0.25000  0.07168  0.36035  1.0000
  Au  Au3       1.0  0.75000  0.57168  0.13966  1.0000
  Au  Au4       1.0  0.75000  0.92832  0.63965  1.0000
  Au  Au5       1.0  0.75000  0.17858  0.73701  1.0000
  Au  Au6       1.0  0.75000  0.32142  0.23701  1.0000
  Au  Au7       1.0  0.25000  0.82142  0.26299  1.0000
  Au  Au8       1.0  0.25000  0.67858  0.76299  1.0000
  Au  Au9       1.0  0.75000  0.95250  0.87862  1.0000
  Au  Au10      1.0  0.75000  0.54750  0.37861  1.0000
  Au  Au11      1.0  0.25000  0.04750  0.12139  1.0000
  Au  Au12      1.0  0.25000  0.45250  0.62138  1.0000
  Au  Au13      1.0  0.75000  0.22362  0.50831  1.0000
  Au  Au14      1.0  0.75000  0.27638  0.00831  1.0000
  Au  Au15      1.0  0.25000  0.77638  0.49169  1.0000
  Au  Au16      1.0  0.25000  0.72362  0.99169  1.0000
