data_image0
_chemical_formula_structural       Sn2I4
_chemical_formula_sum              "Sn2 I4"
_cell_length_a       3.71341
_cell_length_b       4.90095
_cell_length_c       5.97546
_cell_angle_alpha    90
_cell_angle_beta     90
_cell_angle_gamma    90

_space_group_name_H-M_alt    "P 1"
_space_group_IT_number       1

loop_
  _space_group_symop_operation_xyz
  'x, y, z'

loop_
  _atom_site_type_symbol
  _atom_site_label
  _atom_site_symmetry_multiplicity
  _atom_site_fract_x
  _atom_site_fract_y
  _atom_site_fract_z
  _atom_site_occupancy
  Sn  Sn1       1.0  0.50000  0.50000  0.50000  1.0000
  Sn  Sn2       1.0  0.00000  0.00000  0.00000  1.0000
  I   I1        1.0  0.50000  0.29053  0.87373  1.0000
  I   I2        1.0  0.50000  0.70947  0.12627  1.0000
  I   I3        1.0  0.00000  0.20947  0.37373  1.0000
  I   I4        1.0  0.00000  0.79053  0.62627  1.0000
