data_image0
_chemical_formula_structural       Sn4Hg8
_chemical_formula_sum              "Sn4 Hg8"
_cell_length_a       5.84259
_cell_length_b       5.84259
_cell_length_c       5.84259
_cell_angle_alpha    90
_cell_angle_beta     90
_cell_angle_gamma    90

_space_group_name_H-M_alt    "P 1"
_space_group_IT_number       1

loop_
  _space_group_symop_operation_xyz
  'x, y, z'

loop_
  _atom_site_type_symbol
  _atom_site_label
  _atom_site_symmetry_multiplicity
  _atom_site_fract_x
  _atom_site_fract_y
  _atom_site_fract_z
  _atom_site_occupancy
  Sn  Sn1       1.0  0.00000  0.00000  0.00000  1.0000
  Sn  Sn2       1.0  0.50000  0.00000  0.50000  1.0000
  Sn  Sn3       1.0  0.50000  0.50000  0.00000  1.0000
  Sn  Sn4       1.0  0.00000  0.50000  0.50000  1.0000
  Hg  Hg1       1.0  0.37320  0.37320  0.37320  1.0000
  Hg  Hg2       1.0  0.12680  0.62680  0.87320  1.0000
  Hg  Hg3       1.0  0.87320  0.12680  0.62680  1.0000
  Hg  Hg4       1.0  0.62680  0.87320  0.12680  1.0000
  Hg  Hg5       1.0  0.62680  0.62680  0.62680  1.0000
  Hg  Hg6       1.0  0.87320  0.37320  0.12680  1.0000
  Hg  Hg7       1.0  0.12680  0.87320  0.37320  1.0000
  Hg  Hg8       1.0  0.37320  0.12680  0.87320  1.0000
