data_image0
_chemical_formula_structural       Sn4I18
_chemical_formula_sum              "Sn4 I18"
_cell_length_a       8.63794
_cell_length_b       8.63794
_cell_length_c       8.52552
_cell_angle_alpha    83.8592
_cell_angle_beta     83.8592
_cell_angle_gamma    101.477

_space_group_name_H-M_alt    "P 1"
_space_group_IT_number       1

loop_
  _space_group_symop_operation_xyz
  'x, y, z'

loop_
  _atom_site_type_symbol
  _atom_site_label
  _atom_site_symmetry_multiplicity
  _atom_site_fract_x
  _atom_site_fract_y
  _atom_site_fract_z
  _atom_site_occupancy
  Sn  Sn1       1.0  0.40038  0.86392  0.08517  1.0000
  Sn  Sn2       1.0  0.13608  0.59962  0.41483  1.0000
  Sn  Sn3       1.0  0.59962  0.13608  0.91483  1.0000
  Sn  Sn4       1.0  0.86392  0.40038  0.58517  1.0000
  I   I1        1.0  0.39384  0.69869  0.52846  1.0000
  I   I2        1.0  0.30131  0.60616  0.97154  1.0000
  I   I3        1.0  0.70480  0.10155  0.62053  1.0000
  I   I4        1.0  0.89845  0.29520  0.87947  1.0000
  I   I5        1.0  0.29520  0.89845  0.37947  1.0000
  I   I6        1.0  0.10155  0.70480  0.12053  1.0000
  I   I7        1.0  0.13863  0.32769  0.55686  1.0000
  I   I8        1.0  0.67231  0.86136  0.94314  1.0000
  I   I9        1.0  0.86137  0.67231  0.44314  1.0000
  I   I10       1.0  0.32769  0.13863  0.05686  1.0000
  I   I11       1.0  0.00628  0.33381  0.33495  1.0000
  I   I12       1.0  0.66619  0.99372  0.16505  1.0000
  I   I13       1.0  0.99372  0.66619  0.66505  1.0000
  I   I14       1.0  0.33381  0.00628  0.83495  1.0000
  I   I15       1.0  0.69869  0.39384  0.02846  1.0000
  I   I16       1.0  0.60616  0.30131  0.47154  1.0000
  I   I17       1.0  0.40606  0.59394  0.25000  1.0000
  I   I18       1.0  0.59394  0.40606  0.75000  1.0000
