data_image0
_chemical_formula_structural       Sn3Se4
_chemical_formula_sum              "Sn3 Se4"
_cell_length_a       6.16955
_cell_length_b       6.16955
_cell_length_c       6.16478
_cell_angle_alpha    61.9594
_cell_angle_beta     61.9594
_cell_angle_gamma    33.6774

_space_group_name_H-M_alt    "P 1"
_space_group_IT_number       1

loop_
  _space_group_symop_operation_xyz
  'x, y, z'

loop_
  _atom_site_type_symbol
  _atom_site_label
  _atom_site_symmetry_multiplicity
  _atom_site_fract_x
  _atom_site_fract_y
  _atom_site_fract_z
  _atom_site_occupancy
  Sn  Sn1       1.0  0.23878  0.23878  0.78066  1.0000
  Sn  Sn2       1.0  0.76122  0.76122  0.21934  1.0000
  Sn  Sn3       1.0  0.50000  0.50000  0.50000  1.0000
  Se  Se1       1.0  0.86618  0.86618  0.47559  1.0000
  Se  Se2       1.0  0.13382  0.13382  0.52441  1.0000
  Se  Se3       1.0  0.37764  0.37764  0.95551  1.0000
  Se  Se4       1.0  0.62236  0.62236  0.04449  1.0000
