data_image0
_chemical_formula_structural       Au9Te13
_chemical_formula_sum              "Au9 Te13"
_cell_length_a       9.16591
_cell_length_b       9.16591
_cell_length_c       5.77193
_cell_angle_alpha    90
_cell_angle_beta     90
_cell_angle_gamma    120

_space_group_name_H-M_alt    "P 1"
_space_group_IT_number       1

loop_
  _space_group_symop_operation_xyz
  'x, y, z'

loop_
  _atom_site_type_symbol
  _atom_site_label
  _atom_site_symmetry_multiplicity
  _atom_site_fract_x
  _atom_site_fract_y
  _atom_site_fract_z
  _atom_site_occupancy
  Au  Au1       1.0  0.00000  0.00000  0.50000  1.0000
  Au  Au2       1.0  0.33333  0.66667  0.74947  1.0000
  Au  Au3       1.0  0.66667  0.33333  0.25053  1.0000
  Au  Au4       1.0  0.19270  0.80730  0.24659  1.0000
  Au  Au5       1.0  0.19270  0.38540  0.24659  1.0000
  Au  Au6       1.0  0.61460  0.80730  0.24659  1.0000
  Au  Au7       1.0  0.38540  0.19270  0.75341  1.0000
  Au  Au8       1.0  0.80730  0.61460  0.75341  1.0000
  Au  Au9       1.0  0.80730  0.19270  0.75341  1.0000
  Te  Te1       1.0  0.00000  0.00000  0.00000  1.0000
  Te  Te2       1.0  0.50000  0.00000  0.00000  1.0000
  Te  Te3       1.0  0.00000  0.50000  0.00000  1.0000
  Te  Te4       1.0  0.50000  0.50000  0.00000  1.0000
  Te  Te5       1.0  0.50000  0.00000  0.50000  1.0000
  Te  Te6       1.0  0.00000  0.50000  0.50000  1.0000
  Te  Te7       1.0  0.50000  0.50000  0.50000  1.0000
  Te  Te8       1.0  0.15958  0.84042  0.75308  1.0000
  Te  Te9       1.0  0.15958  0.31915  0.75308  1.0000
  Te  Te10      1.0  0.68085  0.84042  0.75308  1.0000
  Te  Te11      1.0  0.31915  0.15958  0.24692  1.0000
  Te  Te12      1.0  0.84042  0.68085  0.24692  1.0000
  Te  Te13      1.0  0.84042  0.15958  0.24692  1.0000
