data_image0
_chemical_formula_structural       Te8Br8
_chemical_formula_sum              "Te8 Br8"
_cell_length_a       6.84496
_cell_length_b       6.84496
_cell_length_c       7.03219
_cell_angle_alpha    90
_cell_angle_beta     90
_cell_angle_gamma    90

_space_group_name_H-M_alt    "P 1"
_space_group_IT_number       1

loop_
  _space_group_symop_operation_xyz
  'x, y, z'

loop_
  _atom_site_type_symbol
  _atom_site_label
  _atom_site_symmetry_multiplicity
  _atom_site_fract_x
  _atom_site_fract_y
  _atom_site_fract_z
  _atom_site_occupancy
  Te  Te1       1.0  0.52993  0.73903  0.00000  1.0000
  Te  Te2       1.0  0.26097  0.52993  0.50000  1.0000
  Te  Te3       1.0  0.73903  0.47007  0.50000  1.0000
  Te  Te4       1.0  0.47007  0.26097  0.00000  1.0000
  Te  Te5       1.0  0.50000  0.00000  0.50000  1.0000
  Te  Te6       1.0  0.00000  0.50000  0.00000  1.0000
  Te  Te7       1.0  0.00000  0.00000  0.75000  1.0000
  Te  Te8       1.0  0.00000  0.00000  0.25000  1.0000
  Br  Br1       1.0  0.19431  0.30739  0.77189  1.0000
  Br  Br2       1.0  0.69261  0.19431  0.27189  1.0000
  Br  Br3       1.0  0.30739  0.80568  0.27189  1.0000
  Br  Br4       1.0  0.80568  0.69261  0.77189  1.0000
  Br  Br5       1.0  0.80568  0.69261  0.22811  1.0000
  Br  Br6       1.0  0.30739  0.80568  0.72811  1.0000
  Br  Br7       1.0  0.69261  0.19431  0.72811  1.0000
  Br  Br8       1.0  0.19431  0.30739  0.22811  1.0000
