data_image0
_chemical_formula_structural       Br8Te4
_chemical_formula_sum              "Br8 Te4"
_cell_length_a       10.337
_cell_length_b       9.47525
_cell_length_c       5.66435
_cell_angle_alpha    81.9612
_cell_angle_beta     65.1792
_cell_angle_gamma    32.8596

_space_group_name_H-M_alt    "P 1"
_space_group_IT_number       1

loop_
  _space_group_symop_operation_xyz
  'x, y, z'

loop_
  _atom_site_type_symbol
  _atom_site_label
  _atom_site_symmetry_multiplicity
  _atom_site_fract_x
  _atom_site_fract_y
  _atom_site_fract_z
  _atom_site_occupancy
  Br  Br1       1.0  0.59295  0.90705  0.59295  1.0000
  Br  Br2       1.0  0.90705  0.59295  0.90705  1.0000
  Br  Br3       1.0  0.91451  0.91451  0.08549  1.0000
  Br  Br4       1.0  0.34295  0.65705  0.34295  1.0000
  Br  Br5       1.0  0.08549  0.08549  0.91451  1.0000
  Br  Br6       1.0  0.16451  0.16451  0.33549  1.0000
  Br  Br7       1.0  0.65705  0.34295  0.65705  1.0000
  Br  Br8       1.0  0.33549  0.33549  0.16451  1.0000
  Te  Te1       1.0  0.62016  0.62016  0.87984  1.0000
  Te  Te2       1.0  0.37016  0.37016  0.62984  1.0000
  Te  Te3       1.0  0.87984  0.87984  0.62016  1.0000
  Te  Te4       1.0  0.62984  0.62984  0.37016  1.0000
