data_image0
_chemical_formula_structural       Te2C5
_chemical_formula_sum              "Te2 C5"
_cell_length_a       5.04941
_cell_length_b       5.04941
_cell_length_c       6.63498
_cell_angle_alpha    83.5286
_cell_angle_beta     83.5286
_cell_angle_gamma    45.9036

_space_group_name_H-M_alt    "P 1"
_space_group_IT_number       1

loop_
  _space_group_symop_operation_xyz
  'x, y, z'

loop_
  _atom_site_type_symbol
  _atom_site_label
  _atom_site_symmetry_multiplicity
  _atom_site_fract_x
  _atom_site_fract_y
  _atom_site_fract_z
  _atom_site_occupancy
  Te  Te1       1.0  0.42421  0.42421  0.71872  1.0000
  Te  Te2       1.0  0.57579  0.57579  0.28128  1.0000
  C   C1        1.0  0.13710  0.13710  0.56693  1.0000
  C   C2        1.0  0.28627  0.28627  0.14528  1.0000
  C   C3        1.0  0.71373  0.71373  0.85472  1.0000
  C   C4        1.0  0.86290  0.86290  0.43307  1.0000
  C   C5        1.0  0.00000  0.00000  0.00000  1.0000
