data_image0
_chemical_formula_structural       Te6Cl20
_chemical_formula_sum              "Te6 Cl20"
_cell_length_a       10.9073
_cell_length_b       10.9073
_cell_length_c       4.79678
_cell_angle_alpha    90
_cell_angle_beta     90
_cell_angle_gamma    120

_space_group_name_H-M_alt    "P 1"
_space_group_IT_number       1

loop_
  _space_group_symop_operation_xyz
  'x, y, z'

loop_
  _atom_site_type_symbol
  _atom_site_label
  _atom_site_symmetry_multiplicity
  _atom_site_fract_x
  _atom_site_fract_y
  _atom_site_fract_z
  _atom_site_occupancy
  Te  Te1       1.0  0.63862  0.74401  0.25000  1.0000
  Te  Te2       1.0  0.25599  0.89461  0.25000  1.0000
  Te  Te3       1.0  0.10539  0.36138  0.25000  1.0000
  Te  Te4       1.0  0.36138  0.25599  0.75000  1.0000
  Te  Te5       1.0  0.74401  0.10539  0.75000  1.0000
  Te  Te6       1.0  0.89461  0.63862  0.75000  1.0000
  Cl  Cl1       1.0  0.87750  0.05814  0.25000  1.0000
  Cl  Cl2       1.0  0.94186  0.81935  0.25000  1.0000
  Cl  Cl3       1.0  0.18065  0.12250  0.25000  1.0000
  Cl  Cl4       1.0  0.12250  0.94186  0.75000  1.0000
  Cl  Cl5       1.0  0.05814  0.18065  0.75000  1.0000
  Cl  Cl6       1.0  0.81935  0.87749  0.75000  1.0000
  Cl  Cl7       1.0  0.56451  0.97423  0.25000  1.0000
  Cl  Cl8       1.0  0.02577  0.59028  0.25000  1.0000
  Cl  Cl9       1.0  0.40972  0.43549  0.25000  1.0000
  Cl  Cl10      1.0  0.43549  0.02576  0.75000  1.0000
  Cl  Cl11      1.0  0.97423  0.40972  0.75000  1.0000
  Cl  Cl12      1.0  0.59028  0.56451  0.75000  1.0000
  Cl  Cl13      1.0  0.79599  0.28445  0.25000  1.0000
  Cl  Cl14      1.0  0.71555  0.51154  0.25000  1.0000
  Cl  Cl15      1.0  0.48846  0.20401  0.25000  1.0000
  Cl  Cl16      1.0  0.20401  0.71555  0.75000  1.0000
  Cl  Cl17      1.0  0.28445  0.48846  0.75000  1.0000
  Cl  Cl18      1.0  0.51154  0.79599  0.75000  1.0000
  Cl  Cl19      1.0  0.66667  0.33333  0.75000  1.0000
  Cl  Cl20      1.0  0.33333  0.66667  0.25000  1.0000
