data_image0
_chemical_formula_structural       TeCl3
_chemical_formula_sum              "Te1 Cl3"
_cell_length_a       9.73837
_cell_length_b       9.73837
_cell_length_c       9.73837
_cell_angle_alpha    17.7831
_cell_angle_beta     17.7831
_cell_angle_gamma    17.7831

_space_group_name_H-M_alt    "P 1"
_space_group_IT_number       1

loop_
  _space_group_symop_operation_xyz
  'x, y, z'

loop_
  _atom_site_type_symbol
  _atom_site_label
  _atom_site_symmetry_multiplicity
  _atom_site_fract_x
  _atom_site_fract_y
  _atom_site_fract_z
  _atom_site_occupancy
  Te  Te1       1.0  0.00000  0.00000  0.00000  1.0000
  Cl  Cl1       1.0  0.24854  0.24855  0.24854  1.0000
  Cl  Cl2       1.0  0.50000  0.50000  0.50000  1.0000
  Cl  Cl3       1.0  0.75146  0.75145  0.75145  1.0000
