data_image0
_chemical_formula_structural       C4Te
_chemical_formula_sum              "C4 Te1"
_cell_length_a       15.0311
_cell_length_b       15.0311
_cell_length_c       15.0311
_cell_angle_alpha    13.3649
_cell_angle_beta     13.3649
_cell_angle_gamma    13.3649

_space_group_name_H-M_alt    "P 1"
_space_group_IT_number       1

loop_
  _space_group_symop_operation_xyz
  'x, y, z'

loop_
  _atom_site_type_symbol
  _atom_site_label
  _atom_site_symmetry_multiplicity
  _atom_site_fract_x
  _atom_site_fract_y
  _atom_site_fract_z
  _atom_site_occupancy
  C   C1        1.0  0.60023  0.60024  0.60023  1.0000
  C   C2        1.0  0.20023  0.20023  0.20023  1.0000
  C   C3        1.0  0.79977  0.79977  0.79977  1.0000
  C   C4        1.0  0.39977  0.39977  0.39976  1.0000
  Te  Te1       1.0  0.00000  0.00000  0.00000  1.0000
