data_image0
_chemical_formula_structural       Te7F20
_chemical_formula_sum              "Te7 F20"
_cell_length_a       7.83356
_cell_length_b       7.83356
_cell_length_c       7.83356
_cell_angle_alpha    99.1481
_cell_angle_beta     99.1481
_cell_angle_gamma    99.1481

_space_group_name_H-M_alt    "P 1"
_space_group_IT_number       1

loop_
  _space_group_symop_operation_xyz
  'x, y, z'

loop_
  _atom_site_type_symbol
  _atom_site_label
  _atom_site_symmetry_multiplicity
  _atom_site_fract_x
  _atom_site_fract_y
  _atom_site_fract_z
  _atom_site_occupancy
  Te  Te1       1.0  0.00000  0.00000  0.00000  1.0000
  Te  Te2       1.0  0.45484  0.87730  0.72507  1.0000
  Te  Te3       1.0  0.87730  0.72507  0.45484  1.0000
  Te  Te4       1.0  0.72507  0.45484  0.87730  1.0000
  Te  Te5       1.0  0.54516  0.12271  0.27493  1.0000
  Te  Te6       1.0  0.12270  0.27493  0.54516  1.0000
  Te  Te7       1.0  0.27493  0.54516  0.12270  1.0000
  F   F1        1.0  0.37705  0.37705  0.37705  1.0000
  F   F2        1.0  0.62295  0.62295  0.62295  1.0000
  F   F3        1.0  0.00089  0.33950  0.22481  1.0000
  F   F4        1.0  0.33950  0.22481  0.00089  1.0000
  F   F5        1.0  0.22481  0.00089  0.33950  1.0000
  F   F6        1.0  0.99911  0.66050  0.77519  1.0000
  F   F7        1.0  0.66050  0.77519  0.99911  1.0000
  F   F8        1.0  0.77519  0.99911  0.66050  1.0000
  F   F9        1.0  0.68862  0.14442  0.98813  1.0000
  F   F10       1.0  0.14442  0.98813  0.68862  1.0000
  F   F11       1.0  0.98813  0.68862  0.14442  1.0000
  F   F12       1.0  0.31138  0.85558  0.01187  1.0000
  F   F13       1.0  0.85558  0.01187  0.31138  1.0000
  F   F14       1.0  0.01187  0.31138  0.85558  1.0000
  F   F15       1.0  0.20728  0.66403  0.47692  1.0000
  F   F16       1.0  0.66403  0.47692  0.20727  1.0000
  F   F17       1.0  0.47692  0.20728  0.66403  1.0000
  F   F18       1.0  0.79273  0.33597  0.52308  1.0000
  F   F19       1.0  0.33597  0.52308  0.79273  1.0000
  F   F20       1.0  0.52308  0.79273  0.33597  1.0000
