data_image0
_chemical_formula_structural       Te4Cl2
_chemical_formula_sum              "Te4 Cl2"
_cell_length_a       6.01602
_cell_length_b       6.01602
_cell_length_c       6.01602
_cell_angle_alpha    104.113
_cell_angle_beta     104.113
_cell_angle_gamma    120.819

_space_group_name_H-M_alt    "P 1"
_space_group_IT_number       1

loop_
  _space_group_symop_operation_xyz
  'x, y, z'

loop_
  _atom_site_type_symbol
  _atom_site_label
  _atom_site_symmetry_multiplicity
  _atom_site_fract_x
  _atom_site_fract_y
  _atom_site_fract_z
  _atom_site_occupancy
  Te  Te1       1.0  0.15942  0.65942  0.81883  1.0000
  Te  Te2       1.0  0.84058  0.34058  0.18117  1.0000
  Te  Te3       1.0  0.34058  0.15942  0.50000  1.0000
  Te  Te4       1.0  0.65942  0.84058  0.50000  1.0000
  Cl  Cl1       1.0  0.25000  0.25000  0.00000  1.0000
  Cl  Cl2       1.0  0.75000  0.75000  0.00000  1.0000
