data_image0
_chemical_formula_structural       F12Te4
_chemical_formula_sum              "F12 Te4"
_cell_length_a       7.1169
_cell_length_b       7.1169
_cell_length_c       7.32174
_cell_angle_alpha    90
_cell_angle_beta     90
_cell_angle_gamma    90

_space_group_name_H-M_alt    "P 1"
_space_group_IT_number       1

loop_
  _space_group_symop_operation_xyz
  'x, y, z'

loop_
  _atom_site_type_symbol
  _atom_site_label
  _atom_site_symmetry_multiplicity
  _atom_site_fract_x
  _atom_site_fract_y
  _atom_site_fract_z
  _atom_site_occupancy
  F   F1        1.0  0.34826  0.34826  0.25568  1.0000
  F   F2        1.0  0.15174  0.84826  0.75568  1.0000
  F   F3        1.0  0.15174  0.84826  0.24432  1.0000
  F   F4        1.0  0.00000  0.50000  0.00000  1.0000
  F   F5        1.0  0.84826  0.15174  0.24432  1.0000
  F   F6        1.0  0.84826  0.15174  0.75568  1.0000
  F   F7        1.0  0.50000  0.00000  0.00000  1.0000
  F   F8        1.0  0.65174  0.65174  0.25568  1.0000
  F   F9        1.0  0.65174  0.65174  0.74432  1.0000
  F   F10       1.0  0.00000  0.50000  0.50000  1.0000
  F   F11       1.0  0.34826  0.34826  0.74432  1.0000
  F   F12       1.0  0.50000  0.00000  0.50000  1.0000
  Te  Te1       1.0  0.15507  0.15507  0.00000  1.0000
  Te  Te2       1.0  0.65507  0.34493  0.50000  1.0000
  Te  Te3       1.0  0.34493  0.65507  0.50000  1.0000
  Te  Te4       1.0  0.84493  0.84493  0.00000  1.0000
