data_image0
_chemical_formula_structural       Hg8Te4
_chemical_formula_sum              "Hg8 Te4"
_cell_length_a       9.63144
_cell_length_b       4.78229
_cell_length_c       8.31855
_cell_angle_alpha    55.3738
_cell_angle_beta     90
_cell_angle_gamma    90

_space_group_name_H-M_alt    "P 1"
_space_group_IT_number       1

loop_
  _space_group_symop_operation_xyz
  'x, y, z'

loop_
  _atom_site_type_symbol
  _atom_site_label
  _atom_site_symmetry_multiplicity
  _atom_site_fract_x
  _atom_site_fract_y
  _atom_site_fract_z
  _atom_site_occupancy
  Hg  Hg1       1.0  0.37529  0.33182  0.33279  1.0000
  Hg  Hg2       1.0  0.62471  0.33182  0.83279  1.0000
  Hg  Hg3       1.0  0.37306  0.75288  0.75597  1.0000
  Hg  Hg4       1.0  0.87529  0.25264  0.25066  1.0000
  Hg  Hg5       1.0  0.62694  0.75288  0.25597  1.0000
  Hg  Hg6       1.0  0.12471  0.25264  0.75066  1.0000
  Hg  Hg7       1.0  0.87641  0.75344  0.75001  1.0000
  Hg  Hg8       1.0  0.12359  0.75344  0.25001  1.0000
  Te  Te1       1.0  0.36994  0.00138  0.99409  1.0000
  Te  Te2       1.0  0.63006  0.00138  0.49409  1.0000
  Te  Te3       1.0  0.87963  0.99113  0.99978  1.0000
  Te  Te4       1.0  0.12037  0.99113  0.49978  1.0000
