data_image0
_chemical_formula_structural       Te4N8
_chemical_formula_sum              "Te4 N8"
_cell_length_a       8.75637
_cell_length_b       8.75637
_cell_length_c       6.70495
_cell_angle_alpha    90
_cell_angle_beta     90
_cell_angle_gamma    158.07

_space_group_name_H-M_alt    "P 1"
_space_group_IT_number       1

loop_
  _space_group_symop_operation_xyz
  'x, y, z'

loop_
  _atom_site_type_symbol
  _atom_site_label
  _atom_site_symmetry_multiplicity
  _atom_site_fract_x
  _atom_site_fract_y
  _atom_site_fract_z
  _atom_site_occupancy
  Te  Te1       1.0  0.20388  0.79612  0.23183  1.0000
  Te  Te2       1.0  0.79612  0.20388  0.73183  1.0000
  Te  Te3       1.0  0.55839  0.44161  0.69726  1.0000
  Te  Te4       1.0  0.44161  0.55839  0.19726  1.0000
  N   N1        1.0  0.67460  0.32540  0.96083  1.0000
  N   N2        1.0  0.32540  0.67460  0.46083  1.0000
  N   N3        1.0  0.41500  0.58500  0.82691  1.0000
  N   N4        1.0  0.58500  0.41500  0.32691  1.0000
  N   N5        1.0  0.17094  0.82906  0.60771  1.0000
  N   N6        1.0  0.82906  0.17094  0.10771  1.0000
  N   N7        1.0  0.96167  0.03833  0.48976  1.0000
  N   N8        1.0  0.03833  0.96167  0.98976  1.0000
