data_image0
_chemical_formula_structural       Te12Tl16
_chemical_formula_sum              "Te12 Tl16"
_cell_length_a       8.17646
_cell_length_b       8.17646
_cell_length_c       6.02958
_cell_angle_alpha    90
_cell_angle_beta     90
_cell_angle_gamma    120

_space_group_name_H-M_alt    "P 1"
_space_group_IT_number       1

loop_
  _space_group_symop_operation_xyz
  'x, y, z'

loop_
  _atom_site_type_symbol
  _atom_site_label
  _atom_site_symmetry_multiplicity
  _atom_site_fract_x
  _atom_site_fract_y
  _atom_site_fract_z
  _atom_site_occupancy
  Te  Te1       1.0  0.56799  0.08175  0.79269  1.0000
  Te  Te2       1.0  0.51375  0.43201  0.79269  1.0000
  Te  Te3       1.0  0.91826  0.48625  0.79269  1.0000
  Te  Te4       1.0  0.43201  0.51375  0.29269  1.0000
  Te  Te5       1.0  0.48625  0.91826  0.29269  1.0000
  Te  Te6       1.0  0.08175  0.56799  0.29269  1.0000
  Te  Te7       1.0  0.08680  0.25416  0.02268  1.0000
  Te  Te8       1.0  0.16736  0.91320  0.02268  1.0000
  Te  Te9       1.0  0.74584  0.83264  0.02268  1.0000
  Te  Te10      1.0  0.91320  0.16736  0.52268  1.0000
  Te  Te11      1.0  0.83264  0.74584  0.52268  1.0000
  Te  Te12      1.0  0.25416  0.08680  0.52268  1.0000
  Tl  Tl1       1.0  0.04508  0.65294  0.02461  1.0000
  Tl  Tl2       1.0  0.60786  0.95492  0.02461  1.0000
  Tl  Tl3       1.0  0.34706  0.39214  0.02461  1.0000
  Tl  Tl4       1.0  0.95492  0.60786  0.52461  1.0000
  Tl  Tl5       1.0  0.39214  0.34706  0.52461  1.0000
  Tl  Tl6       1.0  0.65294  0.04508  0.52461  1.0000
  Tl  Tl7       1.0  0.00230  0.31543  0.77206  1.0000
  Tl  Tl8       1.0  0.31313  0.99770  0.77206  1.0000
  Tl  Tl9       1.0  0.68457  0.68687  0.77206  1.0000
  Tl  Tl10      1.0  0.99770  0.31313  0.27206  1.0000
  Tl  Tl11      1.0  0.68687  0.68457  0.27206  1.0000
  Tl  Tl12      1.0  0.31543  0.00230  0.27206  1.0000
  Tl  Tl13      1.0  0.00000  0.00000  0.02027  1.0000
  Tl  Tl14      1.0  0.00000  0.00000  0.52028  1.0000
  Tl  Tl15      1.0  0.33333  0.66667  0.35802  1.0000
  Tl  Tl16      1.0  0.66667  0.33333  0.85802  1.0000
