data_image0
_chemical_formula_structural       Se12Te4
_chemical_formula_sum              "Se12 Te4"
_cell_length_a       6.27048
_cell_length_b       6.27048
_cell_length_c       6.46649
_cell_angle_alpha    90
_cell_angle_beta     90
_cell_angle_gamma    90

_space_group_name_H-M_alt    "P 1"
_space_group_IT_number       1

loop_
  _space_group_symop_operation_xyz
  'x, y, z'

loop_
  _atom_site_type_symbol
  _atom_site_label
  _atom_site_symmetry_multiplicity
  _atom_site_fract_x
  _atom_site_fract_y
  _atom_site_fract_z
  _atom_site_occupancy
  Se  Se1       1.0  0.50000  0.00000  0.00000  1.0000
  Se  Se2       1.0  0.50000  0.00000  0.50000  1.0000
  Se  Se3       1.0  0.00000  0.50000  0.00000  1.0000
  Se  Se4       1.0  0.00000  0.50000  0.50000  1.0000
  Se  Se5       1.0  0.65128  0.34872  0.74499  1.0000
  Se  Se6       1.0  0.84872  0.84872  0.75501  1.0000
  Se  Se7       1.0  0.15128  0.15128  0.75501  1.0000
  Se  Se8       1.0  0.34872  0.65128  0.74499  1.0000
  Se  Se9       1.0  0.34872  0.65128  0.25500  1.0000
  Se  Se10      1.0  0.65128  0.34872  0.25500  1.0000
  Se  Se11      1.0  0.84872  0.84872  0.24499  1.0000
  Se  Se12      1.0  0.15128  0.15128  0.24499  1.0000
  Te  Te1       1.0  0.84514  0.15486  0.00000  1.0000
  Te  Te2       1.0  0.65486  0.65486  0.50000  1.0000
  Te  Te3       1.0  0.34514  0.34514  0.50000  1.0000
  Te  Te4       1.0  0.15486  0.84514  0.00000  1.0000
