data_image0
_chemical_formula_structural       TeTl4
_chemical_formula_sum              "Te1 Tl4"
_cell_length_a       5.05607
_cell_length_b       5.05607
_cell_length_c       5.05607
_cell_angle_alpha    99.2891
_cell_angle_beta     99.2891
_cell_angle_gamma    132.623

_space_group_name_H-M_alt    "P 1"
_space_group_IT_number       1

loop_
  _space_group_symop_operation_xyz
  'x, y, z'

loop_
  _atom_site_type_symbol
  _atom_site_label
  _atom_site_symmetry_multiplicity
  _atom_site_fract_x
  _atom_site_fract_y
  _atom_site_fract_z
  _atom_site_occupancy
  Te  Te1       1.0  0.00000  0.00000  0.00000  1.0000
  Tl  Tl1       1.0  0.60254  0.79570  0.39824  1.0000
  Tl  Tl2       1.0  0.39746  0.20430  0.60176  1.0000
  Tl  Tl3       1.0  0.20430  0.60254  0.80684  1.0000
  Tl  Tl4       1.0  0.79570  0.39746  0.19316  1.0000
