data_image0
_chemical_formula_structural       Te4Tl4
_chemical_formula_sum              "Te4 Tl4"
_cell_length_a       4.4332
_cell_length_b       4.4332
_cell_length_c       4.4332
_cell_angle_alpha    90
_cell_angle_beta     90
_cell_angle_gamma    90

_space_group_name_H-M_alt    "P 1"
_space_group_IT_number       1

loop_
  _space_group_symop_operation_xyz
  'x, y, z'

loop_
  _atom_site_type_symbol
  _atom_site_label
  _atom_site_symmetry_multiplicity
  _atom_site_fract_x
  _atom_site_fract_y
  _atom_site_fract_z
  _atom_site_occupancy
  Te  Te1       1.0  0.85490  0.64510  0.35490  1.0000
  Te  Te2       1.0  0.64510  0.35490  0.85490  1.0000
  Te  Te3       1.0  0.35490  0.85490  0.64510  1.0000
  Te  Te4       1.0  0.14510  0.14510  0.14510  1.0000
  Tl  Tl1       1.0  0.15680  0.34320  0.65680  1.0000
  Tl  Tl2       1.0  0.34320  0.65680  0.15680  1.0000
  Tl  Tl3       1.0  0.65680  0.15680  0.34320  1.0000
  Tl  Tl4       1.0  0.84320  0.84320  0.84320  1.0000
