data_image0
_chemical_formula_structural       Te2Tl4Te
_chemical_formula_sum              "Te3 Tl4"
_cell_length_a       6.92803
_cell_length_b       6.92803
_cell_length_c       6.92803
_cell_angle_alpha    155.509
_cell_angle_beta     155.509
_cell_angle_gamma    34.91

_space_group_name_H-M_alt    "P 1"
_space_group_IT_number       1

loop_
  _space_group_symop_operation_xyz
  'x, y, z'

loop_
  _atom_site_type_symbol
  _atom_site_label
  _atom_site_symmetry_multiplicity
  _atom_site_fract_x
  _atom_site_fract_y
  _atom_site_fract_z
  _atom_site_occupancy
  Te  Te1       1.0  0.34560  0.34560  0.00000  1.0000
  Te  Te2       1.0  0.65440  0.65440  0.00000  1.0000
  Tl  Tl1       1.0  0.86772  0.86772  0.00000  1.0000
  Tl  Tl2       1.0  0.13228  0.13228  0.00000  1.0000
  Tl  Tl3       1.0  0.75000  0.25000  0.50000  1.0000
  Tl  Tl4       1.0  0.25000  0.75000  0.50000  1.0000
  Te  Te3       1.0  0.00000  0.00000  0.00000  1.0000
