data_image0
_chemical_formula_structural       Se14Y7
_chemical_formula_sum              "Se14 Y7"
_cell_length_a       4.71828
_cell_length_b       4.76608
_cell_length_c       27.1924
_cell_angle_alpha    92.5356
_cell_angle_beta     91.9557
_cell_angle_gamma    118.418

_space_group_name_H-M_alt    "P 1"
_space_group_IT_number       1

loop_
  _space_group_symop_operation_xyz
  'x, y, z'

loop_
  _atom_site_type_symbol
  _atom_site_label
  _atom_site_symmetry_multiplicity
  _atom_site_fract_x
  _atom_site_fract_y
  _atom_site_fract_z
  _atom_site_occupancy
  Se  Se1       1.0  0.78084  0.56480  0.80084  1.0000
  Se  Se2       1.0  0.99840  0.99635  0.88616  1.0000
  Se  Se3       1.0  0.22777  0.47531  0.74436  1.0000
  Se  Se4       1.0  0.25680  0.49142  0.63960  1.0000
  Se  Se5       1.0  0.58807  0.12381  0.60831  1.0000
  Se  Se6       1.0  0.40854  0.13865  0.50827  1.0000
  Se  Se7       1.0  0.80456  0.66492  0.45215  1.0000
  Se  Se8       1.0  0.76477  0.52480  0.25683  1.0000
  Se  Se9       1.0  0.12298  0.22749  0.32958  1.0000
  Se  Se10      1.0  0.06329  0.12526  0.10162  1.0000
  Se  Se11      1.0  0.09458  0.18660  0.21751  1.0000
  Se  Se12      1.0  0.42019  0.83828  0.18372  1.0000
  Se  Se13      1.0  0.38038  0.75792  0.05404  1.0000
  Se  Se14      1.0  0.70217  0.39990  0.02242  1.0000
  Y   Y1        1.0  0.02551  0.04306  0.99377  1.0000
  Y   Y2        1.0  0.31444  0.61843  0.85941  1.0000
  Y   Y3        1.0  0.55811  0.13726  0.71273  1.0000
  Y   Y4        1.0  0.88962  0.74810  0.57119  1.0000
  Y   Y5        1.0  0.12525  0.30923  0.42967  1.0000
  Y   Y6        1.0  0.43903  0.87203  0.29449  1.0000
  Y   Y7        1.0  0.74214  0.48326  0.14361  1.0000
