data_image0
_chemical_formula_structural       Ag12Zn8
_chemical_formula_sum              "Ag12 Zn8"
_cell_length_a       5.21755
_cell_length_b       7.127
_cell_length_c       8.20788
_cell_angle_alpha    90
_cell_angle_beta     90
_cell_angle_gamma    90

_space_group_name_H-M_alt    "P 1"
_space_group_IT_number       1

loop_
  _space_group_symop_operation_xyz
  'x, y, z'

loop_
  _atom_site_type_symbol
  _atom_site_label
  _atom_site_symmetry_multiplicity
  _atom_site_fract_x
  _atom_site_fract_y
  _atom_site_fract_z
  _atom_site_occupancy
  Ag  Ag1       1.0  0.25000  0.91091  0.37454  1.0000
  Ag  Ag2       1.0  0.75000  0.08909  0.62546  1.0000
  Ag  Ag3       1.0  0.49545  0.23662  0.37639  1.0000
  Ag  Ag4       1.0  0.99545  0.76338  0.62361  1.0000
  Ag  Ag5       1.0  0.50455  0.26338  0.87639  1.0000
  Ag  Ag6       1.0  0.99545  0.26338  0.87639  1.0000
  Ag  Ag7       1.0  0.50455  0.76338  0.62361  1.0000
  Ag  Ag8       1.0  0.00455  0.23662  0.37639  1.0000
  Ag  Ag9       1.0  0.49545  0.73662  0.12361  1.0000
  Ag  Ag10      1.0  0.25000  0.41091  0.12546  1.0000
  Ag  Ag11      1.0  0.00455  0.73662  0.12361  1.0000
  Ag  Ag12      1.0  0.75000  0.58909  0.87454  1.0000
  Zn  Zn1       1.0  0.25000  0.56117  0.40295  1.0000
  Zn  Zn2       1.0  0.25000  0.09837  0.64262  1.0000
  Zn  Zn3       1.0  0.75000  0.90163  0.35738  1.0000
  Zn  Zn4       1.0  0.75000  0.40163  0.14262  1.0000
  Zn  Zn5       1.0  0.25000  0.59837  0.85738  1.0000
  Zn  Zn6       1.0  0.25000  0.06117  0.09705  1.0000
  Zn  Zn7       1.0  0.75000  0.43883  0.59705  1.0000
  Zn  Zn8       1.0  0.75000  0.93883  0.90295  1.0000
