data_image0
_chemical_formula_structural       Y9F9
_chemical_formula_sum              "Y9 F9"
_cell_length_a       8.22227
_cell_length_b       8.22227
_cell_length_c       6.03313
_cell_angle_alpha    90
_cell_angle_beta     90
_cell_angle_gamma    120

_space_group_name_H-M_alt    "P 1"
_space_group_IT_number       1

loop_
  _space_group_symop_operation_xyz
  'x, y, z'

loop_
  _atom_site_type_symbol
  _atom_site_label
  _atom_site_symmetry_multiplicity
  _atom_site_fract_x
  _atom_site_fract_y
  _atom_site_fract_z
  _atom_site_occupancy
  Y   Y1        1.0  0.00000  0.64621  0.21136  1.0000
  Y   Y2        1.0  0.64621  0.00000  0.21136  1.0000
  Y   Y3        1.0  0.35379  0.35379  0.21136  1.0000
  Y   Y4        1.0  0.31140  0.00000  0.91739  1.0000
  Y   Y5        1.0  0.68860  0.68860  0.91739  1.0000
  Y   Y6        1.0  0.00000  0.31140  0.91739  1.0000
  Y   Y7        1.0  0.33333  0.66667  0.49788  1.0000
  Y   Y8        1.0  0.00000  0.00000  0.64815  1.0000
  Y   Y9        1.0  0.66667  0.33333  0.49788  1.0000
  F   F1        1.0  1.00000  0.64200  0.71125  1.0000
  F   F2        1.0  0.64200  0.00000  0.71125  1.0000
  F   F3        1.0  0.35800  0.35800  0.71125  1.0000
  F   F4        1.0  0.31177  0.00000  0.41971  1.0000
  F   F5        1.0  0.68823  0.68823  0.41971  1.0000
  F   F6        1.0  0.00000  0.31177  0.41971  1.0000
  F   F7        1.0  0.33333  0.66667  0.98677  1.0000
  F   F8        1.0  0.00000  0.00000  0.16180  1.0000
  F   F9        1.0  0.66667  0.33333  0.98677  1.0000
