data_image0
_chemical_formula_structural       Zn2F4
_chemical_formula_sum              "Zn2 F4"
_cell_length_a       5.1098
_cell_length_b       5.1098
_cell_length_c       4.56911
_cell_angle_alpha    90
_cell_angle_beta     90
_cell_angle_gamma    120.161

_space_group_name_H-M_alt    "P 1"
_space_group_IT_number       1

loop_
  _space_group_symop_operation_xyz
  'x, y, z'

loop_
  _atom_site_type_symbol
  _atom_site_label
  _atom_site_symmetry_multiplicity
  _atom_site_fract_x
  _atom_site_fract_y
  _atom_site_fract_z
  _atom_site_occupancy
  Zn  Zn1       1.0  0.17328  0.17328  0.75000  1.0000
  Zn  Zn2       1.0  0.82672  0.82672  0.25000  1.0000
  F   F1        1.0  0.52226  0.84323  0.75000  1.0000
  F   F2        1.0  0.84323  0.52226  0.75000  1.0000
  F   F3        1.0  0.15677  0.47774  0.25000  1.0000
  F   F4        1.0  0.47774  0.15677  0.25000  1.0000
