data_image0
_chemical_formula_structural       I3Zn
_chemical_formula_sum              "I3 Zn1"
_cell_length_a       4.85543
_cell_length_b       4.85543
_cell_length_c       4.85543
_cell_angle_alpha    134.865
_cell_angle_beta     134.865
_cell_angle_gamma    65.7397

_space_group_name_H-M_alt    "P 1"
_space_group_IT_number       1

loop_
  _space_group_symop_operation_xyz
  'x, y, z'

loop_
  _atom_site_type_symbol
  _atom_site_label
  _atom_site_symmetry_multiplicity
  _atom_site_fract_x
  _atom_site_fract_y
  _atom_site_fract_z
  _atom_site_occupancy
  I   I1        1.0  0.75000  0.25000  0.50000  1.0000
  I   I2        1.0  0.25000  0.75000  0.50000  1.0000
  I   I3        1.0  0.50000  0.50000  0.00000  1.0000
  Zn  Zn1       1.0  0.00000  0.00000  0.00000  1.0000
