data_image0
_chemical_formula_structural       Zn9S6
_chemical_formula_sum              "Zn9 S6"
_cell_length_a       6.86659
_cell_length_b       6.86659
_cell_length_c       7.57004
_cell_angle_alpha    78.1689
_cell_angle_beta     78.1689
_cell_angle_gamma    22.9065

_space_group_name_H-M_alt    "P 1"
_space_group_IT_number       1

loop_
  _space_group_symop_operation_xyz
  'x, y, z'

loop_
  _atom_site_type_symbol
  _atom_site_label
  _atom_site_symmetry_multiplicity
  _atom_site_fract_x
  _atom_site_fract_y
  _atom_site_fract_z
  _atom_site_occupancy
  Zn  Zn1       1.0  0.87264  0.87264  0.26298  1.0000
  Zn  Zn2       1.0  0.12736  0.12736  0.73702  1.0000
  Zn  Zn3       1.0  0.16838  0.16837  0.04992  1.0000
  Zn  Zn4       1.0  0.83162  0.83163  0.95008  1.0000
  Zn  Zn5       1.0  0.19861  0.19861  0.39064  1.0000
  Zn  Zn6       1.0  0.80139  0.80140  0.60936  1.0000
  Zn  Zn7       1.0  0.54292  0.54292  0.34101  1.0000
  Zn  Zn8       1.0  0.45708  0.45708  0.65899  1.0000
  Zn  Zn9       1.0  0.50000  0.50000  0.00000  1.0000
  S   S1        1.0  0.38526  0.38526  0.46298  1.0000
  S   S2        1.0  0.61474  0.61474  0.53702  1.0000
  S   S3        1.0  0.29064  0.29064  0.15188  1.0000
  S   S4        1.0  0.70936  0.70936  0.84812  1.0000
  S   S5        1.0  0.02504  0.02504  0.17261  1.0000
  S   S6        1.0  0.97496  0.97496  0.82739  1.0000
