data_image0
_chemical_formula_structural       N4Zn2
_chemical_formula_sum              "N4 Zn2"
_cell_length_a       5.69053
_cell_length_b       5.69053
_cell_length_c       5.69053
_cell_angle_alpha    105.649
_cell_angle_beta     105.649
_cell_angle_gamma    117.42

_space_group_name_H-M_alt    "P 1"
_space_group_IT_number       1

loop_
  _space_group_symop_operation_xyz
  'x, y, z'

loop_
  _atom_site_type_symbol
  _atom_site_label
  _atom_site_symmetry_multiplicity
  _atom_site_fract_x
  _atom_site_fract_y
  _atom_site_fract_z
  _atom_site_occupancy
  N   N1        1.0  0.33454  0.83454  0.16908  1.0000
  N   N2        1.0  0.16546  0.33454  0.50000  1.0000
  N   N3        1.0  0.83454  0.66546  0.50000  1.0000
  N   N4        1.0  0.66546  0.16546  0.83092  1.0000
  Zn  Zn1       1.0  0.75000  0.75000  0.00000  1.0000
  Zn  Zn2       1.0  0.25000  0.25000  0.00000  1.0000
