data_image0
_chemical_formula_structural       Zn4I8
_chemical_formula_sum              "Zn4 I8"
_cell_length_a       9.0472
_cell_length_b       9.0472
_cell_length_c       7.03519
_cell_angle_alpha    90
_cell_angle_beta     90
_cell_angle_gamma    157.929

_space_group_name_H-M_alt    "P 1"
_space_group_IT_number       1

loop_
  _space_group_symop_operation_xyz
  'x, y, z'

loop_
  _atom_site_type_symbol
  _atom_site_label
  _atom_site_symmetry_multiplicity
  _atom_site_fract_x
  _atom_site_fract_y
  _atom_site_fract_z
  _atom_site_occupancy
  Zn  Zn1       1.0  0.55693  0.44307  0.80287  1.0000
  Zn  Zn2       1.0  0.44307  0.55693  0.30287  1.0000
  Zn  Zn3       1.0  0.20571  0.79429  0.27177  1.0000
  Zn  Zn4       1.0  0.79429  0.20571  0.77177  1.0000
  I   I1        1.0  0.96158  0.03842  0.99700  1.0000
  I   I2        1.0  0.03841  0.96159  0.49700  1.0000
  I   I3        1.0  0.17497  0.82503  0.89381  1.0000
  I   I4        1.0  0.82503  0.17497  0.39381  1.0000
  I   I5        1.0  0.33021  0.66979  0.04644  1.0000
  I   I6        1.0  0.66979  0.33021  0.54644  1.0000
  I   I7        1.0  0.58696  0.41304  0.17381  1.0000
  I   I8        1.0  0.41304  0.58696  0.67381  1.0000
