data_image0
_chemical_formula_structural       Zn14S20
_chemical_formula_sum              "Zn14 S20"
_cell_length_a       9.2008
_cell_length_b       9.2008
_cell_length_c       6.78188
_cell_angle_alpha    89.2114
_cell_angle_beta     89.2114
_cell_angle_gamma    81.2417

_space_group_name_H-M_alt    "P 1"
_space_group_IT_number       1

loop_
  _space_group_symop_operation_xyz
  'x, y, z'

loop_
  _atom_site_type_symbol
  _atom_site_label
  _atom_site_symmetry_multiplicity
  _atom_site_fract_x
  _atom_site_fract_y
  _atom_site_fract_z
  _atom_site_occupancy
  Zn  Zn1       1.0  0.12005  0.56853  0.61297  1.0000
  Zn  Zn2       1.0  0.53483  0.53483  0.71603  1.0000
  Zn  Zn3       1.0  0.84261  0.29480  0.80165  1.0000
  Zn  Zn4       1.0  0.87995  0.43147  0.38703  1.0000
  Zn  Zn5       1.0  0.23692  0.23692  0.93325  1.0000
  Zn  Zn6       1.0  0.70520  0.15739  0.19835  1.0000
  Zn  Zn7       1.0  0.16648  0.16648  0.50284  1.0000
  Zn  Zn8       1.0  0.15739  0.70520  0.19835  1.0000
  Zn  Zn9       1.0  0.43147  0.87995  0.38703  1.0000
  Zn  Zn10      1.0  0.83352  0.83352  0.49716  1.0000
  Zn  Zn11      1.0  0.29480  0.84261  0.80165  1.0000
  Zn  Zn12      1.0  0.46517  0.46517  0.28397  1.0000
  Zn  Zn13      1.0  0.76308  0.76308  0.06675  1.0000
  Zn  Zn14      1.0  0.56853  0.12005  0.61297  1.0000
  S   S1        1.0  0.21821  0.99586  0.15282  1.0000
  S   S2        1.0  0.70757  0.48107  0.06093  1.0000
  S   S3        1.0  0.11124  0.88876  0.50000  1.0000
  S   S4        1.0  0.81754  0.59183  0.72551  1.0000
  S   S5        1.0  0.78179  0.00414  0.84718  1.0000
  S   S6        1.0  0.48107  0.70757  0.06093  1.0000
  S   S7        1.0  0.40816  0.18246  0.27449  1.0000
  S   S8        1.0  0.88876  0.11124  0.50000  1.0000
  S   S9        1.0  0.29243  0.51893  0.93907  1.0000
  S   S10       1.0  0.00414  0.78179  0.84718  1.0000
  S   S11       1.0  0.18246  0.40816  0.27449  1.0000
  S   S12       1.0  0.95123  0.95123  0.16667  1.0000
  S   S13       1.0  0.00000  0.50000  0.00000  1.0000
  S   S14       1.0  0.64874  0.64874  0.39243  1.0000
  S   S15       1.0  0.59184  0.81754  0.72551  1.0000
  S   S16       1.0  0.99586  0.21820  0.15282  1.0000
  S   S17       1.0  0.51893  0.29242  0.93907  1.0000
  S   S18       1.0  0.04877  0.04877  0.83333  1.0000
  S   S19       1.0  0.50000  0.00000  0.00000  1.0000
  S   S20       1.0  0.35126  0.35126  0.60757  1.0000
