data_image0
_chemical_formula_structural       Zn4N4
_chemical_formula_sum              "Zn4 N4"
_cell_length_a       4.4332
_cell_length_b       4.4332
_cell_length_c       4.4332
_cell_angle_alpha    90
_cell_angle_beta     90
_cell_angle_gamma    90

_space_group_name_H-M_alt    "P 1"
_space_group_IT_number       1

loop_
  _space_group_symop_operation_xyz
  'x, y, z'

loop_
  _atom_site_type_symbol
  _atom_site_label
  _atom_site_symmetry_multiplicity
  _atom_site_fract_x
  _atom_site_fract_y
  _atom_site_fract_z
  _atom_site_occupancy
  Zn  Zn1       1.0  0.85490  0.64510  0.35490  1.0000
  Zn  Zn2       1.0  0.64510  0.35490  0.85490  1.0000
  Zn  Zn3       1.0  0.35490  0.85490  0.64510  1.0000
  Zn  Zn4       1.0  0.14510  0.14510  0.14510  1.0000
  N   N1        1.0  0.15680  0.34320  0.65680  1.0000
  N   N2        1.0  0.34320  0.65680  0.15680  1.0000
  N   N3        1.0  0.65680  0.15680  0.34320  1.0000
  N   N4        1.0  0.84320  0.84320  0.84320  1.0000
