data_image0
_chemical_formula_structural       Pd4Ag4
_chemical_formula_sum              "Pd4 Ag4"
_cell_length_a       8.58465
_cell_length_b       8.58465
_cell_length_c       8.58465
_cell_angle_alpha    114.885
_cell_angle_beta     114.885
_cell_angle_gamma    99.1148

_space_group_name_H-M_alt    "P 1"
_space_group_IT_number       1

loop_
  _space_group_symop_operation_xyz
  'x, y, z'

loop_
  _atom_site_type_symbol
  _atom_site_label
  _atom_site_symmetry_multiplicity
  _atom_site_fract_x
  _atom_site_fract_y
  _atom_site_fract_z
  _atom_site_occupancy
  Pd  Pd1       1.0  0.87500  0.62500  0.75000  1.0000
  Pd  Pd2       1.0  0.37500  0.12500  0.25000  1.0000
  Pd  Pd3       1.0  0.87500  0.12500  0.75000  1.0000
  Pd  Pd4       1.0  0.87500  0.12500  0.25000  1.0000
  Ag  Ag1       1.0  0.70685  0.70685  0.00000  1.0000
  Ag  Ag2       1.0  0.45685  0.95685  0.50000  1.0000
  Ag  Ag3       1.0  0.04315  0.54315  0.50000  1.0000
  Ag  Ag4       1.0  0.29315  0.29315  0.00000  1.0000
