data_image0
_chemical_formula_structural       Pd6Au6
_chemical_formula_sum              "Pd6 Au6"
_cell_length_a       2.81191
_cell_length_b       4.78629
_cell_length_c       13.643
_cell_angle_alpha    90
_cell_angle_beta     90
_cell_angle_gamma    90

_space_group_name_H-M_alt    "P 1"
_space_group_IT_number       1

loop_
  _space_group_symop_operation_xyz
  'x, y, z'

loop_
  _atom_site_type_symbol
  _atom_site_label
  _atom_site_symmetry_multiplicity
  _atom_site_fract_x
  _atom_site_fract_y
  _atom_site_fract_z
  _atom_site_occupancy
  Pd  Pd1       1.0  0.00000  0.04636  0.25000  1.0000
  Pd  Pd2       1.0  0.00000  0.95364  0.75000  1.0000
  Pd  Pd3       1.0  0.00000  0.32389  0.58397  1.0000
  Pd  Pd4       1.0  0.00000  0.67611  0.41603  1.0000
  Pd  Pd5       1.0  0.00000  0.32389  0.91603  1.0000
  Pd  Pd6       1.0  0.00000  0.67611  0.08397  1.0000
  Au  Au1       1.0  0.50000  0.53974  0.25000  1.0000
  Au  Au2       1.0  0.50000  0.46026  0.75000  1.0000
  Au  Au3       1.0  0.50000  0.82289  0.58331  1.0000
  Au  Au4       1.0  0.50000  0.17711  0.41669  1.0000
  Au  Au5       1.0  0.50000  0.82289  0.91669  1.0000
  Au  Au6       1.0  0.50000  0.17711  0.08331  1.0000
