data_image0
_chemical_formula_structural       Au2Pd2
_chemical_formula_sum              "Au2 Pd2"
_cell_length_a       4.13841
_cell_length_b       4.13841
_cell_length_c       7.15325
_cell_angle_alpha    73.4375
_cell_angle_beta     73.4375
_cell_angle_gamma    60.0555

_space_group_name_H-M_alt    "P 1"
_space_group_IT_number       1

loop_
  _space_group_symop_operation_xyz
  'x, y, z'

loop_
  _atom_site_type_symbol
  _atom_site_label
  _atom_site_symmetry_multiplicity
  _atom_site_fract_x
  _atom_site_fract_y
  _atom_site_fract_z
  _atom_site_occupancy
  Au  Au1       1.0  0.24151  0.75849  0.25000  1.0000
  Au  Au2       1.0  0.75849  0.24151  0.75000  1.0000
  Pd  Pd1       1.0  0.50000  0.00000  0.50000  1.0000
  Pd  Pd2       1.0  0.00000  0.50000  0.00000  1.0000
