data_image0
_chemical_formula_structural       Zr3S8
_chemical_formula_sum              "Zr3 S8"
_cell_length_a       6.06125
_cell_length_b       6.06125
_cell_length_c       6.06125
_cell_angle_alpha    90.4883
_cell_angle_beta     90.4883
_cell_angle_gamma    90.4883

_space_group_name_H-M_alt    "P 1"
_space_group_IT_number       1

loop_
  _space_group_symop_operation_xyz
  'x, y, z'

loop_
  _atom_site_type_symbol
  _atom_site_label
  _atom_site_symmetry_multiplicity
  _atom_site_fract_x
  _atom_site_fract_y
  _atom_site_fract_z
  _atom_site_occupancy
  Zr  Zr1       1.0  0.50000  0.00000  0.50000  1.0000
  Zr  Zr2       1.0  0.00000  0.50000  0.50000  1.0000
  Zr  Zr3       1.0  0.50000  0.50000  0.00000  1.0000
  S   S1        1.0  0.61781  0.88398  0.12133  1.0000
  S   S2        1.0  0.88398  0.12133  0.61781  1.0000
  S   S3        1.0  0.12133  0.61781  0.88398  1.0000
  S   S4        1.0  0.62524  0.62524  0.62524  1.0000
  S   S5        1.0  0.37476  0.37476  0.37476  1.0000
  S   S6        1.0  0.87867  0.38219  0.11602  1.0000
  S   S7        1.0  0.11602  0.87867  0.38219  1.0000
  S   S8        1.0  0.38219  0.11602  0.87867  1.0000
