data_image0
_chemical_formula_structural       Ag6Pd6
_chemical_formula_sum              "Ag6 Pd6"
_cell_length_a       4.54665
_cell_length_b       4.54665
_cell_length_c       24.4063
_cell_angle_alpha    90
_cell_angle_beta     90
_cell_angle_gamma    120

_space_group_name_H-M_alt    "P 1"
_space_group_IT_number       1

loop_
  _space_group_symop_operation_xyz
  'x, y, z'

loop_
  _atom_site_type_symbol
  _atom_site_label
  _atom_site_symmetry_multiplicity
  _atom_site_fract_x
  _atom_site_fract_y
  _atom_site_fract_z
  _atom_site_occupancy
  Ag  Ag1       1.0  0.00000  0.00000  0.78185  1.0000
  Ag  Ag2       1.0  0.33333  0.66667  0.05130  1.0000
  Ag  Ag3       1.0  0.00000  0.00000  0.44861  1.0000
  Ag  Ag4       1.0  0.00000  0.00000  0.11505  1.0000
  Ag  Ag5       1.0  0.66667  0.33333  0.71814  1.0000
  Ag  Ag6       1.0  0.33333  0.66667  0.38496  1.0000
  Pd  Pd1       1.0  0.00000  0.00000  0.33174  1.0000
  Pd  Pd2       1.0  0.00000  0.00000  0.66498  1.0000
  Pd  Pd3       1.0  0.33333  0.66667  0.16823  1.0000
  Pd  Pd4       1.0  0.33333  0.66667  0.50186  1.0000
  Pd  Pd5       1.0  0.66667  0.33333  0.83507  1.0000
  Pd  Pd6       1.0  0.00000  0.00000  0.99818  1.0000
