data_image0
_chemical_formula_structural       Pd4Hg4
_chemical_formula_sum              "Pd4 Hg4"
_cell_length_a       8.34523
_cell_length_b       8.34523
_cell_length_c       4.13879
_cell_angle_alpha    90
_cell_angle_beta     90
_cell_angle_gamma    103.479

_space_group_name_H-M_alt    "P 1"
_space_group_IT_number       1

loop_
  _space_group_symop_operation_xyz
  'x, y, z'

loop_
  _atom_site_type_symbol
  _atom_site_label
  _atom_site_symmetry_multiplicity
  _atom_site_fract_x
  _atom_site_fract_y
  _atom_site_fract_z
  _atom_site_occupancy
  Pd  Pd1       1.0  0.30264  0.24688  0.00000  1.0000
  Pd  Pd2       1.0  0.75312  0.69736  0.00000  1.0000
  Pd  Pd3       1.0  0.77645  0.22355  0.50000  1.0000
  Pd  Pd4       1.0  0.26439  0.73561  0.00000  1.0000
  Hg  Hg1       1.0  0.40201  0.03944  0.50000  1.0000
  Hg  Hg2       1.0  0.96056  0.59799  0.50000  1.0000
  Hg  Hg3       1.0  0.63909  0.36091  0.00000  1.0000
  Hg  Hg4       1.0  0.42673  0.57327  0.50000  1.0000
