data_image0
_chemical_formula_structural       Pd2N2
_chemical_formula_sum              "Pd2 N2"
_cell_length_a       5.40311
_cell_length_b       5.40311
_cell_length_c       5.40311
_cell_angle_alpha    31.711
_cell_angle_beta     31.711
_cell_angle_gamma    31.711

_space_group_name_H-M_alt    "P 1"
_space_group_IT_number       1

loop_
  _space_group_symop_operation_xyz
  'x, y, z'

loop_
  _atom_site_type_symbol
  _atom_site_label
  _atom_site_symmetry_multiplicity
  _atom_site_fract_x
  _atom_site_fract_y
  _atom_site_fract_z
  _atom_site_occupancy
  Pd  Pd1       1.0  0.13165  0.13165  0.13165  1.0000
  Pd  Pd2       1.0  0.86835  0.86835  0.86835  1.0000
  N   N1        1.0  0.25821  0.25821  0.25821  1.0000
  N   N2        1.0  0.74179  0.74179  0.74179  1.0000
