data_image0
_chemical_formula_structural       Pd3Hg3
_chemical_formula_sum              "Pd3 Hg3"
_cell_length_a       5.04098
_cell_length_b       5.04098
_cell_length_c       5.04098
_cell_angle_alpha    60.6038
_cell_angle_beta     60.6038
_cell_angle_gamma    60.6038

_space_group_name_H-M_alt    "P 1"
_space_group_IT_number       1

loop_
  _space_group_symop_operation_xyz
  'x, y, z'

loop_
  _atom_site_type_symbol
  _atom_site_label
  _atom_site_symmetry_multiplicity
  _atom_site_fract_x
  _atom_site_fract_y
  _atom_site_fract_z
  _atom_site_occupancy
  Pd  Pd1       1.0  0.00000  0.00000  0.00000  1.0000
  Pd  Pd2       1.0  0.38038  0.38038  0.38038  1.0000
  Pd  Pd3       1.0  0.61962  0.61962  0.61962  1.0000
  Hg  Hg1       1.0  0.00000  0.50000  0.00000  1.0000
  Hg  Hg2       1.0  0.00000  0.00000  0.50000  1.0000
  Hg  Hg3       1.0  0.50000  0.00000  0.00000  1.0000
