data_image0
_chemical_formula_structural       PdAg34
_chemical_formula_sum              "Pd1 Ag34"
_cell_length_a       12.7767
_cell_length_b       12.7767
_cell_length_c       12.7767
_cell_angle_alpha    60
_cell_angle_beta     60
_cell_angle_gamma    60

_space_group_name_H-M_alt    "P 1"
_space_group_IT_number       1

loop_
  _space_group_symop_operation_xyz
  'x, y, z'

loop_
  _atom_site_type_symbol
  _atom_site_label
  _atom_site_symmetry_multiplicity
  _atom_site_fract_x
  _atom_site_fract_y
  _atom_site_fract_z
  _atom_site_occupancy
  Pd  Pd1       1.0  0.75000  0.75000  0.75000  1.0000
  Ag  Ag1       1.0  0.00000  0.00000  0.00000  1.0000
  Ag  Ag2       1.0  0.25000  0.25000  0.25000  1.0000
  Ag  Ag3       1.0  0.36110  0.75435  0.75435  1.0000
  Ag  Ag4       1.0  0.75435  0.36110  0.13019  1.0000
  Ag  Ag5       1.0  0.75435  0.13019  0.36110  1.0000
  Ag  Ag6       1.0  0.13019  0.75435  0.75435  1.0000
  Ag  Ag7       1.0  0.75435  0.75435  0.36110  1.0000
  Ag  Ag8       1.0  0.36110  0.13019  0.75435  1.0000
  Ag  Ag9       1.0  0.13019  0.36110  0.75435  1.0000
  Ag  Ag10      1.0  0.75435  0.75435  0.13019  1.0000
  Ag  Ag11      1.0  0.75435  0.36110  0.75435  1.0000
  Ag  Ag12      1.0  0.13019  0.75435  0.36110  1.0000
  Ag  Ag13      1.0  0.36110  0.75435  0.13019  1.0000
  Ag  Ag14      1.0  0.75435  0.13019  0.75435  1.0000
  Ag  Ag15      1.0  0.88913  0.49575  0.49575  1.0000
  Ag  Ag16      1.0  0.49575  0.88913  0.11938  1.0000
  Ag  Ag17      1.0  0.49575  0.11938  0.88913  1.0000
  Ag  Ag18      1.0  0.11938  0.49575  0.49575  1.0000
  Ag  Ag19      1.0  0.49575  0.49575  0.88913  1.0000
  Ag  Ag20      1.0  0.88913  0.11938  0.49575  1.0000
  Ag  Ag21      1.0  0.11938  0.88913  0.49575  1.0000
  Ag  Ag22      1.0  0.49575  0.49575  0.11938  1.0000
  Ag  Ag23      1.0  0.49575  0.88913  0.49575  1.0000
  Ag  Ag24      1.0  0.11938  0.49575  0.88913  1.0000
  Ag  Ag25      1.0  0.88913  0.49575  0.11938  1.0000
  Ag  Ag26      1.0  0.49575  0.11938  0.49575  1.0000
  Ag  Ag27      1.0  0.27685  0.90772  0.90772  1.0000
  Ag  Ag28      1.0  0.90772  0.27685  0.90772  1.0000
  Ag  Ag29      1.0  0.90772  0.90772  0.27684  1.0000
  Ag  Ag30      1.0  0.90772  0.90772  0.90772  1.0000
  Ag  Ag31      1.0  0.97350  0.34217  0.34217  1.0000
  Ag  Ag32      1.0  0.34217  0.97350  0.34217  1.0000
  Ag  Ag33      1.0  0.34217  0.34217  0.97350  1.0000
  Ag  Ag34      1.0  0.34217  0.34217  0.34217  1.0000
