data_image0
_chemical_formula_structural       Pd4Ag8
_chemical_formula_sum              "Pd4 Ag8"
_cell_length_a       4.02141
_cell_length_b       4.02141
_cell_length_c       50.1152
_cell_angle_alpha    90
_cell_angle_beta     90
_cell_angle_gamma    120

_space_group_name_H-M_alt    "P 1"
_space_group_IT_number       1

loop_
  _space_group_symop_operation_xyz
  'x, y, z'

loop_
  _atom_site_type_symbol
  _atom_site_label
  _atom_site_symmetry_multiplicity
  _atom_site_fract_x
  _atom_site_fract_y
  _atom_site_fract_z
  _atom_site_occupancy
  Pd  Pd1       1.0  0.66667  0.33333  0.90644  1.0000
  Pd  Pd2       1.0  0.66667  0.33333  0.28068  1.0000
  Pd  Pd3       1.0  0.33333  0.66667  0.71932  1.0000
  Pd  Pd4       1.0  0.33333  0.66667  0.09356  1.0000
  Ag  Ag1       1.0  0.33333  0.66667  0.94580  1.0000
  Ag  Ag2       1.0  0.33333  0.66667  0.32004  1.0000
  Ag  Ag3       1.0  0.66667  0.33333  0.75868  1.0000
  Ag  Ag4       1.0  0.66667  0.33333  0.13292  1.0000
  Ag  Ag5       1.0  0.33333  0.66667  0.86708  1.0000
  Ag  Ag6       1.0  0.33333  0.66667  0.24132  1.0000
  Ag  Ag7       1.0  0.66667  0.33333  0.67996  1.0000
  Ag  Ag8       1.0  0.66667  0.33333  0.05420  1.0000
