data_image0
_chemical_formula_structural       Ag4Pd
_chemical_formula_sum              "Ag4 Pd1"
_cell_length_a       4.17082
_cell_length_b       4.17082
_cell_length_c       13.4235
_cell_angle_alpha    90
_cell_angle_beta     90
_cell_angle_gamma    120

_space_group_name_H-M_alt    "P 1"
_space_group_IT_number       1

loop_
  _space_group_symop_operation_xyz
  'x, y, z'

loop_
  _atom_site_type_symbol
  _atom_site_label
  _atom_site_symmetry_multiplicity
  _atom_site_fract_x
  _atom_site_fract_y
  _atom_site_fract_z
  _atom_site_occupancy
  Ag  Ag1       1.0  0.33333  0.66667  0.86604  1.0000
  Ag  Ag2       1.0  0.33333  0.66667  0.37787  1.0000
  Ag  Ag3       1.0  0.66667  0.33333  0.13396  1.0000
  Ag  Ag4       1.0  0.66667  0.33333  0.62213  1.0000
  Pd  Pd1       1.0  0.00000  0.00000  0.00000  1.0000
