data_image0
_chemical_formula_structural       Pd2N2
_chemical_formula_sum              "Pd2 N2"
_cell_length_a       3.83822
_cell_length_b       3.83822
_cell_length_c       3.83822
_cell_angle_alpha    127.009
_cell_angle_beta     109.028
_cell_angle_gamma    94.1304

_space_group_name_H-M_alt    "P 1"
_space_group_IT_number       1

loop_
  _space_group_symop_operation_xyz
  'x, y, z'

loop_
  _atom_site_type_symbol
  _atom_site_label
  _atom_site_symmetry_multiplicity
  _atom_site_fract_x
  _atom_site_fract_y
  _atom_site_fract_z
  _atom_site_occupancy
  Pd  Pd1       1.0  0.24498  0.24497  0.00000  1.0000
  Pd  Pd2       1.0  0.75502  0.75502  1.00000  1.0000
  N   N1        1.0  0.61629  0.00000  0.61629  1.0000
  N   N2        1.0  0.38371  0.00000  0.38371  1.0000
