data_image0
_chemical_formula_structural       Ag6Pd2
_chemical_formula_sum              "Ag6 Pd2"
_cell_length_a       5.10123
_cell_length_b       5.10123
_cell_length_c       8.99679
_cell_angle_alpha    90
_cell_angle_beta     90
_cell_angle_gamma    120

_space_group_name_H-M_alt    "P 1"
_space_group_IT_number       1

loop_
  _space_group_symop_operation_xyz
  'x, y, z'

loop_
  _atom_site_type_symbol
  _atom_site_label
  _atom_site_symmetry_multiplicity
  _atom_site_fract_x
  _atom_site_fract_y
  _atom_site_fract_z
  _atom_site_occupancy
  Ag  Ag1       1.0  0.33333  0.66667  0.58663  1.0000
  Ag  Ag2       1.0  0.66667  0.33333  0.41337  1.0000
  Ag  Ag3       1.0  0.33333  0.66667  0.93790  1.0000
  Ag  Ag4       1.0  0.66667  0.33333  0.06210  1.0000
  Ag  Ag5       1.0  0.00000  0.00000  0.77970  1.0000
  Ag  Ag6       1.0  0.00000  0.00000  0.22030  1.0000
  Pd  Pd1       1.0  0.66667  0.33333  0.73788  1.0000
  Pd  Pd2       1.0  0.33333  0.66667  0.26212  1.0000
