data_image0
_chemical_formula_structural       Pd2Ag4
_chemical_formula_sum              "Pd2 Ag4"
_cell_length_a       5.51563
_cell_length_b       5.51563
_cell_length_c       11.825
_cell_angle_alpha    90
_cell_angle_beta     90
_cell_angle_gamma    123.079

_space_group_name_H-M_alt    "P 1"
_space_group_IT_number       1

loop_
  _space_group_symop_operation_xyz
  'x, y, z'

loop_
  _atom_site_type_symbol
  _atom_site_label
  _atom_site_symmetry_multiplicity
  _atom_site_fract_x
  _atom_site_fract_y
  _atom_site_fract_z
  _atom_site_occupancy
  Pd  Pd1       1.0  0.02024  0.05532  0.25000  1.0000
  Pd  Pd2       1.0  0.05532  0.02024  0.75000  1.0000
  Ag  Ag1       1.0  0.35708  0.72968  0.25000  1.0000
  Ag  Ag2       1.0  0.07084  0.07084  0.50000  1.0000
  Ag  Ag3       1.0  0.07084  0.07084  0.00000  1.0000
  Ag  Ag4       1.0  0.72968  0.35708  0.75000  1.0000
