data_image0
_chemical_formula_structural       Ag2Pd2
_chemical_formula_sum              "Ag2 Pd2"
_cell_length_a       4.98782
_cell_length_b       4.98782
_cell_length_c       3.6794
_cell_angle_alpha    80.8132
_cell_angle_beta     80.8132
_cell_angle_gamma    114.496

_space_group_name_H-M_alt    "P 1"
_space_group_IT_number       1

loop_
  _space_group_symop_operation_xyz
  'x, y, z'

loop_
  _atom_site_type_symbol
  _atom_site_label
  _atom_site_symmetry_multiplicity
  _atom_site_fract_x
  _atom_site_fract_y
  _atom_site_fract_z
  _atom_site_occupancy
  Ag  Ag1       1.0  0.16357  0.83643  0.25000  1.0000
  Ag  Ag2       1.0  0.83643  0.16357  0.75000  1.0000
  Pd  Pd1       1.0  0.52312  0.47688  0.25000  1.0000
  Pd  Pd2       1.0  0.47688  0.52312  0.75000  1.0000
