data_image0
_chemical_formula_structural       Ag16Pd2
_chemical_formula_sum              "Ag16 Pd2"
_cell_length_a       5.63158
_cell_length_b       5.63158
_cell_length_c       14.8536
_cell_angle_alpha    90
_cell_angle_beta     90
_cell_angle_gamma    120

_space_group_name_H-M_alt    "P 1"
_space_group_IT_number       1

loop_
  _space_group_symop_operation_xyz
  'x, y, z'

loop_
  _atom_site_type_symbol
  _atom_site_label
  _atom_site_symmetry_multiplicity
  _atom_site_fract_x
  _atom_site_fract_y
  _atom_site_fract_z
  _atom_site_occupancy
  Ag  Ag1       1.0  0.66667  0.33333  0.65612  1.0000
  Ag  Ag2       1.0  0.66667  0.33333  0.34388  1.0000
  Ag  Ag3       1.0  0.83357  0.16644  0.81679  1.0000
  Ag  Ag4       1.0  0.83357  0.66713  0.81679  1.0000
  Ag  Ag5       1.0  0.33287  0.16643  0.81679  1.0000
  Ag  Ag6       1.0  0.83357  0.16644  0.18321  1.0000
  Ag  Ag7       1.0  0.83357  0.66713  0.18321  1.0000
  Ag  Ag8       1.0  0.33287  0.16643  0.18321  1.0000
  Ag  Ag9       1.0  0.33333  0.66667  0.90297  1.0000
  Ag  Ag10      1.0  0.33333  0.66667  0.09703  1.0000
  Ag  Ag11      1.0  0.49555  0.50445  0.50000  1.0000
  Ag  Ag12      1.0  0.49555  0.99111  0.50000  1.0000
  Ag  Ag13      1.0  0.00890  0.50445  0.50000  1.0000
  Ag  Ag14      1.0  0.66667  0.33333  0.00000  1.0000
  Ag  Ag15      1.0  0.00000  0.00000  0.62640  1.0000
  Ag  Ag16      1.0  0.00000  0.00000  0.37360  1.0000
  Pd  Pd1       1.0  0.33333  0.66667  0.69293  1.0000
  Pd  Pd2       1.0  0.33333  0.66667  0.30707  1.0000
