data_image0
_chemical_formula_structural       Ag44Pd2
_chemical_formula_sum              "Ag44 Pd2"
_cell_length_a       11.1443
_cell_length_b       11.1443
_cell_length_c       11.1443
_cell_angle_alpha    60
_cell_angle_beta     60
_cell_angle_gamma    60

_space_group_name_H-M_alt    "P 1"
_space_group_IT_number       1

loop_
  _space_group_symop_operation_xyz
  'x, y, z'

loop_
  _atom_site_type_symbol
  _atom_site_label
  _atom_site_symmetry_multiplicity
  _atom_site_fract_x
  _atom_site_fract_y
  _atom_site_fract_z
  _atom_site_occupancy
  Ag  Ag1       1.0  0.11459  0.38541  0.38541  1.0000
  Ag  Ag2       1.0  0.68140  0.94942  0.94942  1.0000
  Ag  Ag3       1.0  0.94942  0.68140  0.94942  1.0000
  Ag  Ag4       1.0  0.83024  0.56860  0.30058  1.0000
  Ag  Ag5       1.0  0.62500  0.12500  0.12500  1.0000
  Ag  Ag6       1.0  0.86459  0.13541  0.86459  1.0000
  Ag  Ag7       1.0  0.13541  0.13541  0.86459  1.0000
  Ag  Ag8       1.0  0.56860  0.30058  0.30058  1.0000
  Ag  Ag9       1.0  0.13541  0.86459  0.13541  1.0000
  Ag  Ag10      1.0  0.62500  0.12500  0.62500  1.0000
  Ag  Ag11      1.0  0.94942  0.94942  0.41976  1.0000
  Ag  Ag12      1.0  0.68140  0.41976  0.94942  1.0000
  Ag  Ag13      1.0  0.11459  0.11459  0.38541  1.0000
  Ag  Ag14      1.0  0.56860  0.30058  0.83024  1.0000
  Ag  Ag15      1.0  0.38541  0.11459  0.11459  1.0000
  Ag  Ag16      1.0  0.41976  0.68140  0.94942  1.0000
  Ag  Ag17      1.0  0.94942  0.94942  0.68140  1.0000
  Ag  Ag18      1.0  0.86459  0.86459  0.13541  1.0000
  Ag  Ag19      1.0  0.56860  0.83024  0.30058  1.0000
  Ag  Ag20      1.0  0.30058  0.30058  0.83024  1.0000
  Ag  Ag21      1.0  0.30058  0.56860  0.30058  1.0000
  Ag  Ag22      1.0  0.12500  0.12500  0.12500  1.0000
  Ag  Ag23      1.0  0.68140  0.94942  0.41976  1.0000
  Ag  Ag24      1.0  0.94942  0.41976  0.68140  1.0000
  Ag  Ag25      1.0  0.30058  0.83024  0.30058  1.0000
  Ag  Ag26      1.0  0.12500  0.62500  0.62500  1.0000
  Ag  Ag27      1.0  0.30058  0.83024  0.56860  1.0000
  Ag  Ag28      1.0  0.13541  0.86459  0.86459  1.0000
  Ag  Ag29      1.0  0.41976  0.94942  0.94942  1.0000
  Ag  Ag30      1.0  0.38541  0.38541  0.11459  1.0000
  Ag  Ag31      1.0  0.62500  0.62500  0.62500  1.0000
  Ag  Ag32      1.0  0.86459  0.13541  0.13541  1.0000
  Ag  Ag33      1.0  0.83024  0.30058  0.30058  1.0000
  Ag  Ag34      1.0  0.30058  0.56860  0.83024  1.0000
  Ag  Ag35      1.0  0.94942  0.68140  0.41976  1.0000
  Ag  Ag36      1.0  0.41976  0.94942  0.68140  1.0000
  Ag  Ag37      1.0  0.30058  0.30058  0.56860  1.0000
  Ag  Ag38      1.0  0.12500  0.12500  0.62500  1.0000
  Ag  Ag39      1.0  0.83024  0.30058  0.56860  1.0000
  Ag  Ag40      1.0  0.11459  0.38541  0.11459  1.0000
  Ag  Ag41      1.0  0.94942  0.41976  0.94942  1.0000
  Ag  Ag42      1.0  0.12500  0.62500  0.12500  1.0000
  Ag  Ag43      1.0  0.38541  0.11459  0.38541  1.0000
  Ag  Ag44      1.0  0.62500  0.62500  0.12500  1.0000
  Pd  Pd1       1.0  0.75000  0.75000  0.75000  1.0000
  Pd  Pd2       1.0  0.50000  0.50000  0.50000  1.0000
