data_image0
_chemical_formula_structural       Pd8Ag16
_chemical_formula_sum              "Pd8 Ag16"
_cell_length_a       20.6111
_cell_length_b       20.6111
_cell_length_c       20.6111
_cell_angle_alpha    151.944
_cell_angle_beta     151.944
_cell_angle_gamma    40.0955

_space_group_name_H-M_alt    "P 1"
_space_group_IT_number       1

loop_
  _space_group_symop_operation_xyz
  'x, y, z'

loop_
  _atom_site_type_symbol
  _atom_site_label
  _atom_site_symmetry_multiplicity
  _atom_site_fract_x
  _atom_site_fract_y
  _atom_site_fract_z
  _atom_site_occupancy
  Pd  Pd1       1.0  0.43225  0.31016  0.62197  1.0000
  Pd  Pd2       1.0  0.68819  0.81028  0.37803  1.0000
  Pd  Pd3       1.0  0.31775  0.43972  0.37790  1.0000
  Pd  Pd4       1.0  0.06181  0.93984  0.62209  1.0000
  Pd  Pd5       1.0  0.68984  0.56775  0.37803  1.0000
  Pd  Pd6       1.0  0.18972  0.31181  0.62197  1.0000
  Pd  Pd7       1.0  0.56028  0.68225  0.62209  1.0000
  Pd  Pd8       1.0  0.06016  0.93819  0.37791  1.0000
  Ag  Ag1       1.0  0.37500  0.41443  0.53943  1.0000
  Ag  Ag2       1.0  0.87500  0.83557  0.46057  1.0000
  Ag  Ag3       1.0  0.58557  0.62500  0.46057  1.0000
  Ag  Ag4       1.0  0.16443  0.12500  0.53943  1.0000
  Ag  Ag5       1.0  0.55243  0.55243  0.00000  1.0000
  Ag  Ag6       1.0  0.19757  0.69757  0.50000  1.0000
  Ag  Ag7       1.0  0.44757  0.44757  0.00000  1.0000
  Ag  Ag8       1.0  0.30243  0.80243  0.50000  1.0000
  Ag  Ag9       1.0  0.56853  0.06853  0.50000  1.0000
  Ag  Ag10      1.0  0.18147  0.18147  0.00000  1.0000
  Ag  Ag11      1.0  0.93147  0.43147  0.50000  1.0000
  Ag  Ag12      1.0  0.81853  0.81853  0.00000  1.0000
  Ag  Ag13      1.0  0.78361  0.78361  0.56723  1.0000
  Ag  Ag14      1.0  0.21639  0.21639  0.43277  1.0000
  Ag  Ag15      1.0  0.96639  0.03361  0.50000  1.0000
  Ag  Ag16      1.0  0.53361  0.46639  0.50000  1.0000
