data_image0
_chemical_formula_structural       Ag29Pd2
_chemical_formula_sum              "Ag29 Pd2"
_cell_length_a       10.8547
_cell_length_b       10.8547
_cell_length_c       10.8443
_cell_angle_alpha    70.5015
_cell_angle_beta     70.5015
_cell_angle_gamma    109.372

_space_group_name_H-M_alt    "P 1"
_space_group_IT_number       1

loop_
  _space_group_symop_operation_xyz
  'x, y, z'

loop_
  _atom_site_type_symbol
  _atom_site_label
  _atom_site_symmetry_multiplicity
  _atom_site_fract_x
  _atom_site_fract_y
  _atom_site_fract_z
  _atom_site_occupancy
  Ag  Ag1       1.0  0.00001  0.00001  0.00010  1.0000
  Ag  Ag2       1.0  0.82152  0.62841  0.37220  1.0000
  Ag  Ag3       1.0  0.62841  0.82152  0.37220  1.0000
  Ag  Ag4       1.0  0.62739  0.62739  0.17767  1.0000
  Ag  Ag5       1.0  0.17921  0.80657  0.19252  1.0000
  Ag  Ag6       1.0  0.37159  0.99910  0.80879  1.0000
  Ag  Ag7       1.0  0.37303  0.19483  0.00004  1.0000
  Ag  Ag8       1.0  0.00055  0.19179  0.62753  1.0000
  Ag  Ag9       1.0  0.19179  0.00055  0.62753  1.0000
  Ag  Ag10      1.0  0.80565  0.80565  0.82122  1.0000
  Ag  Ag11      1.0  0.99910  0.37159  0.80879  1.0000
  Ag  Ag12      1.0  0.80657  0.17921  0.19252  1.0000
  Ag  Ag13      1.0  0.19484  0.37303  0.00004  1.0000
  Ag  Ag14      1.0  0.29574  0.61557  0.38456  1.0000
  Ag  Ag15      1.0  0.61557  0.29574  0.38456  1.0000
  Ag  Ag16      1.0  0.61162  0.61162  0.71096  1.0000
  Ag  Ag17      1.0  0.70436  0.31996  0.68024  1.0000
  Ag  Ag18      1.0  0.38726  0.00002  0.31951  1.0000
  Ag  Ag19      1.0  0.38830  0.67730  0.00008  1.0000
  Ag  Ag20      1.0  0.99989  0.68014  0.61292  1.0000
  Ag  Ag21      1.0  0.68014  0.99989  0.61292  1.0000
  Ag  Ag22      1.0  0.32294  0.32294  0.28872  1.0000
  Ag  Ag23      1.0  0.00002  0.38726  0.31951  1.0000
  Ag  Ag24      1.0  0.31996  0.70436  0.68024  1.0000
  Ag  Ag25      1.0  0.67730  0.38830  0.00008  1.0000
  Ag  Ag26      1.0  0.36157  0.36157  0.63898  1.0000
  Ag  Ag27      1.0  0.63817  0.99936  0.00038  1.0000
  Ag  Ag28      1.0  0.00011  0.00011  0.36106  1.0000
  Ag  Ag29      1.0  0.99936  0.63817  0.00038  1.0000
  Pd  Pd1       1.0  0.99993  0.46011  0.53988  1.0000
  Pd  Pd2       1.0  0.46011  0.99993  0.53988  1.0000
