data_image0
_chemical_formula_structural       Ag16Pd6
_chemical_formula_sum              "Ag16 Pd6"
_cell_length_a       9.33178
_cell_length_b       9.33178
_cell_length_c       9.33178
_cell_angle_alpha    109.471
_cell_angle_beta     109.471
_cell_angle_gamma    109.471

_space_group_name_H-M_alt    "P 1"
_space_group_IT_number       1

loop_
  _space_group_symop_operation_xyz
  'x, y, z'

loop_
  _atom_site_type_symbol
  _atom_site_label
  _atom_site_symmetry_multiplicity
  _atom_site_fract_x
  _atom_site_fract_y
  _atom_site_fract_z
  _atom_site_occupancy
  Ag  Ag1       1.0  0.00000  0.00000  0.50000  1.0000
  Ag  Ag2       1.0  0.00000  0.50000  0.00000  1.0000
  Ag  Ag3       1.0  0.50000  0.00000  0.00000  1.0000
  Ag  Ag4       1.0  0.50000  0.50000  0.50000  1.0000
  Ag  Ag5       1.0  0.19265  0.19265  0.38530  1.0000
  Ag  Ag6       1.0  0.80735  0.00000  0.19265  1.0000
  Ag  Ag7       1.0  0.00000  0.80735  0.19265  1.0000
  Ag  Ag8       1.0  0.80735  0.19265  0.00000  1.0000
  Ag  Ag9       1.0  0.19265  0.38530  0.19265  1.0000
  Ag  Ag10      1.0  0.00000  0.19265  0.80735  1.0000
  Ag  Ag11      1.0  0.19265  0.80735  0.00000  1.0000
  Ag  Ag12      1.0  0.19265  0.00000  0.80735  1.0000
  Ag  Ag13      1.0  0.38530  0.19265  0.19265  1.0000
  Ag  Ag14      1.0  0.80735  0.80735  0.61470  1.0000
  Ag  Ag15      1.0  0.80735  0.61470  0.80735  1.0000
  Ag  Ag16      1.0  0.61470  0.80735  0.80735  1.0000
  Pd  Pd1       1.0  0.61413  0.61413  0.00000  1.0000
  Pd  Pd2       1.0  0.38587  0.00000  0.38587  1.0000
  Pd  Pd3       1.0  0.00000  0.38587  0.38587  1.0000
  Pd  Pd4       1.0  0.38587  0.38587  0.00000  1.0000
  Pd  Pd5       1.0  0.61413  0.00000  0.61413  1.0000
  Pd  Pd6       1.0  0.00000  0.61413  0.61413  1.0000
