data_image0
_chemical_formula_structural       C4Pd4
_chemical_formula_sum              "C4 Pd4"
_cell_length_a       5.66858
_cell_length_b       5.43373
_cell_length_c       5.04074
_cell_angle_alpha    65.4026
_cell_angle_beta     60.6432
_cell_angle_gamma    53.9542

_space_group_name_H-M_alt    "P 1"
_space_group_IT_number       1

loop_
  _space_group_symop_operation_xyz
  'x, y, z'

loop_
  _atom_site_type_symbol
  _atom_site_label
  _atom_site_symmetry_multiplicity
  _atom_site_fract_x
  _atom_site_fract_y
  _atom_site_fract_z
  _atom_site_occupancy
  C   C1        1.0  0.24863  0.24863  0.75137  1.0000
  C   C2        1.0  0.75137  0.75137  0.24863  1.0000
  C   C3        1.0  0.00137  0.00137  0.49863  1.0000
  C   C4        1.0  0.49863  0.49863  0.00137  1.0000
  Pd  Pd1       1.0  0.56872  0.43128  0.56871  1.0000
  Pd  Pd2       1.0  0.43129  0.56871  0.43128  1.0000
  Pd  Pd3       1.0  0.68129  0.81871  0.68129  1.0000
  Pd  Pd4       1.0  0.81872  0.68129  0.81871  1.0000
