data_image0
_chemical_formula_structural       Pd12Ag18
_chemical_formula_sum              "Pd12 Ag18"
_cell_length_a       8.92005
_cell_length_b       8.92005
_cell_length_c       23.3204
_cell_angle_alpha    90
_cell_angle_beta     90
_cell_angle_gamma    120

_space_group_name_H-M_alt    "P 1"
_space_group_IT_number       1

loop_
  _space_group_symop_operation_xyz
  'x, y, z'

loop_
  _atom_site_type_symbol
  _atom_site_label
  _atom_site_symmetry_multiplicity
  _atom_site_fract_x
  _atom_site_fract_y
  _atom_site_fract_z
  _atom_site_occupancy
  Pd  Pd1       1.0  0.65810  0.00935  0.54948  1.0000
  Pd  Pd2       1.0  0.69934  0.00579  0.18385  1.0000
  Pd  Pd3       1.0  0.00579  0.30644  0.01719  1.0000
  Pd  Pd4       1.0  0.99065  0.64875  0.88281  1.0000
  Pd  Pd5       1.0  0.00935  0.35125  0.38281  1.0000
  Pd  Pd6       1.0  0.99421  0.69356  0.51719  1.0000
  Pd  Pd7       1.0  0.64875  0.65810  0.71615  1.0000
  Pd  Pd8       1.0  0.69356  0.69934  0.35052  1.0000
  Pd  Pd9       1.0  0.30644  0.30066  0.85052  1.0000
  Pd  Pd10      1.0  0.30066  0.99421  0.68385  1.0000
  Pd  Pd11      1.0  0.35125  0.34190  0.21614  1.0000
  Pd  Pd12      1.0  0.34190  0.99065  0.04948  1.0000
  Ag  Ag1       1.0  0.33963  0.34290  0.34829  1.0000
  Ag  Ag2       1.0  0.66555  0.95910  0.04088  1.0000
  Ag  Ag3       1.0  0.04090  0.70645  0.37421  1.0000
  Ag  Ag4       1.0  0.65358  0.69899  0.49485  1.0000
  Ag  Ag5       1.0  0.33445  0.04090  0.54088  1.0000
  Ag  Ag6       1.0  0.66037  0.65710  0.84829  1.0000
  Ag  Ag7       1.0  0.65710  0.99673  0.68162  1.0000
  Ag  Ag8       1.0  0.30101  0.95459  0.82819  1.0000
  Ag  Ag9       1.0  0.04541  0.34642  0.16152  1.0000
  Ag  Ag10      1.0  0.95459  0.65358  0.66152  1.0000
  Ag  Ag11      1.0  0.34290  0.00327  0.18162  1.0000
  Ag  Ag12      1.0  0.69899  0.04541  0.32819  1.0000
  Ag  Ag13      1.0  0.70645  0.66555  0.20754  1.0000
  Ag  Ag14      1.0  0.00327  0.66037  0.01496  1.0000
  Ag  Ag15      1.0  0.34642  0.30101  0.99485  1.0000
  Ag  Ag16      1.0  0.95910  0.29355  0.87421  1.0000
  Ag  Ag17      1.0  0.29355  0.33445  0.70754  1.0000
  Ag  Ag18      1.0  0.99673  0.33963  0.51496  1.0000
