data_image0
_chemical_formula_structural       Pd6Ag24
_chemical_formula_sum              "Pd6 Ag24"
_cell_length_a       16.4041
_cell_length_b       16.4041
_cell_length_c       8.28616
_cell_angle_alpha    90
_cell_angle_beta     90
_cell_angle_gamma    120

_space_group_name_H-M_alt    "P 1"
_space_group_IT_number       1

loop_
  _space_group_symop_operation_xyz
  'x, y, z'

loop_
  _atom_site_type_symbol
  _atom_site_label
  _atom_site_symmetry_multiplicity
  _atom_site_fract_x
  _atom_site_fract_y
  _atom_site_fract_z
  _atom_site_occupancy
  Pd  Pd1       1.0  0.82786  0.65573  0.00000  1.0000
  Pd  Pd2       1.0  0.17214  0.82786  0.00000  1.0000
  Pd  Pd3       1.0  0.17214  0.34427  0.00000  1.0000
  Pd  Pd4       1.0  0.82786  0.17214  0.00000  1.0000
  Pd  Pd5       1.0  0.34427  0.17214  0.00000  1.0000
  Pd  Pd6       1.0  0.65573  0.82786  0.00000  1.0000
  Ag  Ag1       1.0  0.17120  0.47918  0.76715  1.0000
  Ag  Ag2       1.0  0.00000  0.67391  0.79009  1.0000
  Ag  Ag3       1.0  0.82880  0.30797  0.76715  1.0000
  Ag  Ag4       1.0  0.17204  0.00000  0.80441  1.0000
  Ag  Ag5       1.0  0.82880  0.52082  0.23285  1.0000
  Ag  Ag6       1.0  0.67391  0.67391  0.20991  1.0000
  Ag  Ag7       1.0  0.00000  0.82796  0.19559  1.0000
  Ag  Ag8       1.0  0.00000  0.17204  0.80441  1.0000
  Ag  Ag9       1.0  0.47918  0.17120  0.76715  1.0000
  Ag  Ag10      1.0  0.17120  0.69203  0.23285  1.0000
  Ag  Ag11      1.0  0.32609  0.00000  0.20991  1.0000
  Ag  Ag12      1.0  0.32609  0.32609  0.79009  1.0000
  Ag  Ag13      1.0  0.69203  0.17120  0.23285  1.0000
  Ag  Ag14      1.0  0.30797  0.82880  0.76715  1.0000
  Ag  Ag15      1.0  0.17204  0.17204  0.19559  1.0000
  Ag  Ag16      1.0  0.30797  0.47918  0.23285  1.0000
  Ag  Ag17      1.0  0.67391  0.00000  0.79009  1.0000
  Ag  Ag18      1.0  0.52082  0.69203  0.76715  1.0000
  Ag  Ag19      1.0  0.82796  0.82796  0.80441  1.0000
  Ag  Ag20      1.0  0.47918  0.30797  0.23285  1.0000
  Ag  Ag21      1.0  0.52082  0.82880  0.23285  1.0000
  Ag  Ag22      1.0  0.69203  0.52082  0.76715  1.0000
  Ag  Ag23      1.0  0.82796  0.00000  0.19559  1.0000
  Ag  Ag24      1.0  1.00000  0.32609  0.20991  1.0000
