data_image0
_chemical_formula_structural       PdHg
_chemical_formula_sum              "Pd1 Hg1"
_cell_length_a       2.81195
_cell_length_b       2.83907
_cell_length_c       4.32614
_cell_angle_alpha    90.0802
_cell_angle_beta     90.9901
_cell_angle_gamma    120.025

_space_group_name_H-M_alt    "P 1"
_space_group_IT_number       1

loop_
  _space_group_symop_operation_xyz
  'x, y, z'

loop_
  _atom_site_type_symbol
  _atom_site_label
  _atom_site_symmetry_multiplicity
  _atom_site_fract_x
  _atom_site_fract_y
  _atom_site_fract_z
  _atom_site_occupancy
  Pd  Pd1       1.0  0.65771  0.32514  0.74981  1.0000
  Hg  Hg1       1.0  0.34229  0.67486  0.25019  1.0000
