data_image0
_chemical_formula_structural       Pd8Hg8
_chemical_formula_sum              "Pd8 Hg8"
_cell_length_a       8.71513
_cell_length_b       9.13931
_cell_length_c       10.5443
_cell_angle_alpha    103.281
_cell_angle_beta     89.872
_cell_angle_gamma    104.022

_space_group_name_H-M_alt    "P 1"
_space_group_IT_number       1

loop_
  _space_group_symop_operation_xyz
  'x, y, z'

loop_
  _atom_site_type_symbol
  _atom_site_label
  _atom_site_symmetry_multiplicity
  _atom_site_fract_x
  _atom_site_fract_y
  _atom_site_fract_z
  _atom_site_occupancy
  Pd  Pd1       1.0  0.19012  0.75891  0.18134  1.0000
  Pd  Pd2       1.0  0.80988  0.24109  0.81866  1.0000
  Pd  Pd3       1.0  0.48821  0.00533  0.19846  1.0000
  Pd  Pd4       1.0  0.51179  0.99467  0.80154  1.0000
  Pd  Pd5       1.0  0.31411  0.25073  0.28023  1.0000
  Pd  Pd6       1.0  0.68589  0.74927  0.71977  1.0000
  Pd  Pd7       1.0  0.01310  0.00425  0.19704  1.0000
  Pd  Pd8       1.0  0.98690  0.99575  0.80296  1.0000
  Hg  Hg1       1.0  0.17943  0.70745  0.44122  1.0000
  Hg  Hg2       1.0  0.82057  0.29255  0.55878  1.0000
  Hg  Hg3       1.0  0.31934  0.28796  0.55912  1.0000
  Hg  Hg4       1.0  0.68066  0.71204  0.44088  1.0000
  Hg  Hg5       1.0  0.82359  0.27264  0.18659  1.0000
  Hg  Hg6       1.0  0.17641  0.72736  0.81341  1.0000
  Hg  Hg7       1.0  0.68567  0.73050  0.08656  1.0000
  Hg  Hg8       1.0  0.31433  0.26950  0.91344  1.0000
