data_image0
_chemical_formula_structural       Ag4Pd4
_chemical_formula_sum              "Ag4 Pd4"
_cell_length_a       4.55164
_cell_length_b       4.55164
_cell_length_c       20.3816
_cell_angle_alpha    90
_cell_angle_beta     90
_cell_angle_gamma    120

_space_group_name_H-M_alt    "P 1"
_space_group_IT_number       1

loop_
  _space_group_symop_operation_xyz
  'x, y, z'

loop_
  _atom_site_type_symbol
  _atom_site_label
  _atom_site_symmetry_multiplicity
  _atom_site_fract_x
  _atom_site_fract_y
  _atom_site_fract_z
  _atom_site_occupancy
  Ag  Ag1       1.0  0.33333  0.66667  0.57725  1.0000
  Ag  Ag2       1.0  0.33333  0.66667  0.42275  1.0000
  Ag  Ag3       1.0  0.66667  0.33333  0.92287  1.0000
  Ag  Ag4       1.0  0.66667  0.33333  0.07713  1.0000
  Pd  Pd1       1.0  0.00000  0.00000  0.85370  1.0000
  Pd  Pd2       1.0  0.00000  0.00000  0.14630  1.0000
  Pd  Pd3       1.0  0.66667  0.33333  0.64635  1.0000
  Pd  Pd4       1.0  0.66667  0.33333  0.35365  1.0000
