data_image0
_chemical_formula_structural       Ag8Pd8
_chemical_formula_sum              "Ag8 Pd8"
_cell_length_a       5.72276
_cell_length_b       6.20329
_cell_length_c       10.7176
_cell_angle_alpha    90
_cell_angle_beta     90
_cell_angle_gamma    90

_space_group_name_H-M_alt    "P 1"
_space_group_IT_number       1

loop_
  _space_group_symop_operation_xyz
  'x, y, z'

loop_
  _atom_site_type_symbol
  _atom_site_label
  _atom_site_symmetry_multiplicity
  _atom_site_fract_x
  _atom_site_fract_y
  _atom_site_fract_z
  _atom_site_occupancy
  Ag  Ag1       1.0  0.39679  0.38349  0.91693  1.0000
  Ag  Ag2       1.0  0.89679  0.11651  0.08307  1.0000
  Ag  Ag3       1.0  0.60321  0.88349  0.58307  1.0000
  Ag  Ag4       1.0  0.10321  0.61651  0.41693  1.0000
  Ag  Ag5       1.0  0.66489  0.64523  0.21609  1.0000
  Ag  Ag6       1.0  0.16489  0.85477  0.78391  1.0000
  Ag  Ag7       1.0  0.33511  0.14523  0.28391  1.0000
  Ag  Ag8       1.0  0.83511  0.35477  0.71609  1.0000
  Pd  Pd1       1.0  0.16551  0.68895  0.10064  1.0000
  Pd  Pd2       1.0  0.66551  0.81105  0.89936  1.0000
  Pd  Pd3       1.0  0.83449  0.18895  0.39936  1.0000
  Pd  Pd4       1.0  0.33449  0.31105  0.60064  1.0000
  Pd  Pd5       1.0  0.90600  0.58220  0.97060  1.0000
  Pd  Pd6       1.0  0.40600  0.91780  0.02940  1.0000
  Pd  Pd7       1.0  0.09400  0.08220  0.52940  1.0000
  Pd  Pd8       1.0  0.59400  0.41780  0.47060  1.0000
