data_image0
_chemical_formula_structural       Pd3C3
_chemical_formula_sum              "Pd3 C3"
_cell_length_a       3.3391
_cell_length_b       3.3391
_cell_length_c       8.1747
_cell_angle_alpha    90
_cell_angle_beta     90
_cell_angle_gamma    120

_space_group_name_H-M_alt    "P 1"
_space_group_IT_number       1

loop_
  _space_group_symop_operation_xyz
  'x, y, z'

loop_
  _atom_site_type_symbol
  _atom_site_label
  _atom_site_symmetry_multiplicity
  _atom_site_fract_x
  _atom_site_fract_y
  _atom_site_fract_z
  _atom_site_occupancy
  Pd  Pd1       1.0  0.66059  0.63936  0.69317  1.0000
  Pd  Pd2       1.0  0.97878  0.33941  0.35983  1.0000
  Pd  Pd3       1.0  0.36064  0.02122  0.02650  1.0000
  C   C1        1.0  0.64704  0.67073  0.44350  1.0000
  C   C2        1.0  0.32927  0.97631  0.77684  1.0000
  C   C3        1.0  0.02369  0.35296  0.11017  1.0000
