data_image0
_chemical_formula_structural       Pd2Hg2
_chemical_formula_sum              "Pd2 Hg2"
_cell_length_a       4.40622
_cell_length_b       4.40622
_cell_length_c       23.24
_cell_angle_alpha    86.1522
_cell_angle_beta     86.1522
_cell_angle_gamma    90.1718

_space_group_name_H-M_alt    "P 1"
_space_group_IT_number       1

loop_
  _space_group_symop_operation_xyz
  'x, y, z'

loop_
  _atom_site_type_symbol
  _atom_site_label
  _atom_site_symmetry_multiplicity
  _atom_site_fract_x
  _atom_site_fract_y
  _atom_site_fract_z
  _atom_site_occupancy
  Pd  Pd1       1.0  0.27000  0.27372  0.93744  1.0000
  Pd  Pd2       1.0  0.72628  0.73000  0.06256  1.0000
  Hg  Hg1       1.0  0.75179  0.78867  0.94203  1.0000
  Hg  Hg2       1.0  0.21133  0.24821  0.05797  1.0000
