data_image0
_chemical_formula_structural       Pd4N4
_chemical_formula_sum              "Pd4 N4"
_cell_length_a       5.53361
_cell_length_b       5.30436
_cell_length_c       4.92072
_cell_angle_alpha    65.4026
_cell_angle_beta     60.6432
_cell_angle_gamma    53.9542

_space_group_name_H-M_alt    "P 1"
_space_group_IT_number       1

loop_
  _space_group_symop_operation_xyz
  'x, y, z'

loop_
  _atom_site_type_symbol
  _atom_site_label
  _atom_site_symmetry_multiplicity
  _atom_site_fract_x
  _atom_site_fract_y
  _atom_site_fract_z
  _atom_site_occupancy
  Pd  Pd1       1.0  0.24863  0.24863  0.75137  1.0000
  Pd  Pd2       1.0  0.75137  0.75137  0.24863  1.0000
  Pd  Pd3       1.0  0.00137  0.00137  0.49863  1.0000
  Pd  Pd4       1.0  0.49863  0.49863  0.00137  1.0000
  N   N1        1.0  0.56871  0.43128  0.56871  1.0000
  N   N2        1.0  0.43128  0.56872  0.43128  1.0000
  N   N3        1.0  0.68129  0.81872  0.68129  1.0000
  N   N4        1.0  0.81871  0.68129  0.81872  1.0000
