data_image0
_chemical_formula_structural       Pd6Hg6
_chemical_formula_sum              "Pd6 Hg6"
_cell_length_a       5.3463
_cell_length_b       5.83686
_cell_length_c       11.3845
_cell_angle_alpha    75.5274
_cell_angle_beta     78.1202
_cell_angle_gamma    76.4276

_space_group_name_H-M_alt    "P 1"
_space_group_IT_number       1

loop_
  _space_group_symop_operation_xyz
  'x, y, z'

loop_
  _atom_site_type_symbol
  _atom_site_label
  _atom_site_symmetry_multiplicity
  _atom_site_fract_x
  _atom_site_fract_y
  _atom_site_fract_z
  _atom_site_occupancy
  Pd  Pd1       1.0  0.54906  0.11179  0.89284  1.0000
  Pd  Pd2       1.0  0.72492  0.77838  0.24807  1.0000
  Pd  Pd3       1.0  0.01732  0.10943  0.40000  1.0000
  Pd  Pd4       1.0  0.56301  0.57830  0.57787  1.0000
  Pd  Pd5       1.0  0.06125  0.29394  0.09308  1.0000
  Pd  Pd6       1.0  0.12720  0.20266  0.68500  1.0000
  Hg  Hg1       1.0  0.94095  0.65324  0.81831  1.0000
  Hg  Hg2       1.0  0.19755  0.57508  0.40702  1.0000
  Hg  Hg3       1.0  0.52368  0.53352  0.99881  1.0000
  Hg  Hg4       1.0  0.08269  0.85129  0.98658  1.0000
  Hg  Hg5       1.0  0.69141  0.99466  0.64717  1.0000
  Hg  Hg6       1.0  0.52102  0.31777  0.24513  1.0000
