data_image0
_chemical_formula_structural       Pd2Hg2
_chemical_formula_sum              "Pd2 Hg2"
_cell_length_a       4.29837
_cell_length_b       4.29837
_cell_length_c       7.91225
_cell_angle_alpha    90
_cell_angle_beta     90
_cell_angle_gamma    120

_space_group_name_H-M_alt    "P 1"
_space_group_IT_number       1

loop_
  _space_group_symop_operation_xyz
  'x, y, z'

loop_
  _atom_site_type_symbol
  _atom_site_label
  _atom_site_symmetry_multiplicity
  _atom_site_fract_x
  _atom_site_fract_y
  _atom_site_fract_z
  _atom_site_occupancy
  Pd  Pd1       1.0  0.00000  0.00000  0.48951  1.0000
  Pd  Pd2       1.0  0.00000  0.00000  0.98951  1.0000
  Hg  Hg1       1.0  0.33333  0.66667  0.68969  1.0000
  Hg  Hg2       1.0  0.66667  0.33333  0.18969  1.0000
