data_image0
_chemical_formula_structural       Ag6Pd2
_chemical_formula_sum              "Ag6 Pd2"
_cell_length_a       5.66748
_cell_length_b       5.66748
_cell_length_c       7.82798
_cell_angle_alpha    90
_cell_angle_beta     90
_cell_angle_gamma    107.991

_space_group_name_H-M_alt    "P 1"
_space_group_IT_number       1

loop_
  _space_group_symop_operation_xyz
  'x, y, z'

loop_
  _atom_site_type_symbol
  _atom_site_label
  _atom_site_symmetry_multiplicity
  _atom_site_fract_x
  _atom_site_fract_y
  _atom_site_fract_z
  _atom_site_occupancy
  Ag  Ag1       1.0  0.04254  0.65119  0.75000  1.0000
  Ag  Ag2       1.0  0.65119  0.04254  0.75000  1.0000
  Ag  Ag3       1.0  0.50000  0.50000  0.00000  1.0000
  Ag  Ag4       1.0  0.50000  0.50000  0.50000  1.0000
  Ag  Ag5       1.0  0.34881  0.95746  0.25000  1.0000
  Ag  Ag6       1.0  0.95746  0.34881  0.25000  1.0000
  Pd  Pd1       1.0  0.81086  0.81086  0.25000  1.0000
  Pd  Pd2       1.0  0.18914  0.18914  0.75000  1.0000
