data_image0
_chemical_formula_structural       Pd8Au12
_chemical_formula_sum              "Pd8 Au12"
_cell_length_a       6.89115
_cell_length_b       12.6656
_cell_length_c       6.89115
_cell_angle_alpha    90
_cell_angle_beta     120
_cell_angle_gamma    90

_space_group_name_H-M_alt    "P 1"
_space_group_IT_number       1

loop_
  _space_group_symop_operation_xyz
  'x, y, z'

loop_
  _atom_site_type_symbol
  _atom_site_label
  _atom_site_symmetry_multiplicity
  _atom_site_fract_x
  _atom_site_fract_y
  _atom_site_fract_z
  _atom_site_occupancy
  Pd  Pd1       1.0  0.66667  0.25794  0.33333  1.0000
  Pd  Pd2       1.0  0.66667  0.98877  0.33333  1.0000
  Pd  Pd3       1.0  0.00000  0.00455  0.00000  1.0000
  Pd  Pd4       1.0  0.33333  0.74886  0.66667  1.0000
  Pd  Pd5       1.0  0.33333  0.49499  0.66667  1.0000
  Pd  Pd6       1.0  0.66667  0.50483  0.33333  1.0000
  Pd  Pd7       1.0  0.00000  0.50032  0.00000  1.0000
  Pd  Pd8       1.0  0.33333  0.00509  0.66667  1.0000
  Au  Au1       1.0  0.66254  0.62023  0.99240  1.0000
  Au  Au2       1.0  0.98649  0.12210  0.65711  1.0000
  Au  Au3       1.0  0.67053  0.37944  0.66427  1.0000
  Au  Au4       1.0  0.00760  0.62023  0.67014  1.0000
  Au  Au5       1.0  0.34289  0.12210  0.32938  1.0000
  Au  Au6       1.0  0.33573  0.37944  0.00626  1.0000
  Au  Au7       1.0  0.99374  0.37944  0.32947  1.0000
  Au  Au8       1.0  0.32627  0.87645  0.99069  1.0000
  Au  Au9       1.0  0.32986  0.62023  0.33746  1.0000
  Au  Au10      1.0  0.67062  0.12210  0.01351  1.0000
  Au  Au11      1.0  0.00931  0.87645  0.33558  1.0000
  Au  Au12      1.0  0.66442  0.87645  0.67373  1.0000
