data_image0
_chemical_formula_structural       PdAg3
_chemical_formula_sum              "Pd1 Ag3"
_cell_length_a       6.18107
_cell_length_b       6.18107
_cell_length_c       6.50607
_cell_angle_alpha    75.5027
_cell_angle_beta     75.5027
_cell_angle_gamma    106.727

_space_group_name_H-M_alt    "P 1"
_space_group_IT_number       1

loop_
  _space_group_symop_operation_xyz
  'x, y, z'

loop_
  _atom_site_type_symbol
  _atom_site_label
  _atom_site_symmetry_multiplicity
  _atom_site_fract_x
  _atom_site_fract_y
  _atom_site_fract_z
  _atom_site_occupancy
  Pd  Pd1       1.0  0.98886  0.01114  0.00000  1.0000
  Ag  Ag1       1.0  0.90322  0.45904  0.14823  1.0000
  Ag  Ag2       1.0  0.54096  0.09678  0.85177  1.0000
  Ag  Ag3       1.0  0.06696  0.93304  0.50000  1.0000
