data_image0
_chemical_formula_structural       Pd5Au6
_chemical_formula_sum              "Pd5 Au6"
_cell_length_a       8.42808
_cell_length_b       8.42808
_cell_length_c       7.39145
_cell_angle_alpha    69.908
_cell_angle_beta     69.908
_cell_angle_gamma    29.3074

_space_group_name_H-M_alt    "P 1"
_space_group_IT_number       1

loop_
  _space_group_symop_operation_xyz
  'x, y, z'

loop_
  _atom_site_type_symbol
  _atom_site_label
  _atom_site_symmetry_multiplicity
  _atom_site_fract_x
  _atom_site_fract_y
  _atom_site_fract_z
  _atom_site_occupancy
  Pd  Pd1       1.0  0.42291  0.42291  0.37124  1.0000
  Pd  Pd2       1.0  0.00000  0.00000  0.00000  1.0000
  Pd  Pd3       1.0  0.57709  0.57709  0.62875  1.0000
  Pd  Pd4       1.0  0.34365  0.34365  0.93569  1.0000
  Pd  Pd5       1.0  0.65635  0.65635  0.06431  1.0000
  Au  Au1       1.0  0.80759  0.80759  0.25871  1.0000
  Au  Au2       1.0  0.05782  0.05782  0.33047  1.0000
  Au  Au3       1.0  0.19241  0.19241  0.74130  1.0000
  Au  Au4       1.0  0.79341  0.79341  0.63010  1.0000
  Au  Au5       1.0  0.20659  0.20659  0.36990  1.0000
  Au  Au6       1.0  0.94218  0.94218  0.66953  1.0000
