data_image0
_chemical_formula_structural       PdAu34
_chemical_formula_sum              "Pd1 Au34"
_cell_length_a       11.2049
_cell_length_b       11.2049
_cell_length_c       11.2049
_cell_angle_alpha    60
_cell_angle_beta     60
_cell_angle_gamma    60

_space_group_name_H-M_alt    "P 1"
_space_group_IT_number       1

loop_
  _space_group_symop_operation_xyz
  'x, y, z'

loop_
  _atom_site_type_symbol
  _atom_site_label
  _atom_site_symmetry_multiplicity
  _atom_site_fract_x
  _atom_site_fract_y
  _atom_site_fract_z
  _atom_site_occupancy
  Pd  Pd1       1.0  0.75000  0.75000  0.75000  1.0000
  Au  Au1       1.0  0.00000  0.00000  0.00000  1.0000
  Au  Au2       1.0  0.25000  0.25000  0.25000  1.0000
  Au  Au3       1.0  0.36110  0.75435  0.75435  1.0000
  Au  Au4       1.0  0.75435  0.36110  0.13019  1.0000
  Au  Au5       1.0  0.75435  0.13019  0.36110  1.0000
  Au  Au6       1.0  0.13019  0.75435  0.75435  1.0000
  Au  Au7       1.0  0.75435  0.75435  0.36110  1.0000
  Au  Au8       1.0  0.36110  0.13019  0.75435  1.0000
  Au  Au9       1.0  0.13019  0.36110  0.75435  1.0000
  Au  Au10      1.0  0.75435  0.75435  0.13019  1.0000
  Au  Au11      1.0  0.75435  0.36110  0.75435  1.0000
  Au  Au12      1.0  0.13019  0.75435  0.36110  1.0000
  Au  Au13      1.0  0.36110  0.75435  0.13019  1.0000
  Au  Au14      1.0  0.75435  0.13019  0.75435  1.0000
  Au  Au15      1.0  0.88913  0.49575  0.49575  1.0000
  Au  Au16      1.0  0.49575  0.88913  0.11938  1.0000
  Au  Au17      1.0  0.49575  0.11938  0.88913  1.0000
  Au  Au18      1.0  0.11938  0.49575  0.49575  1.0000
  Au  Au19      1.0  0.49575  0.49575  0.88913  1.0000
  Au  Au20      1.0  0.88913  0.11938  0.49575  1.0000
  Au  Au21      1.0  0.11938  0.88913  0.49575  1.0000
  Au  Au22      1.0  0.49575  0.49575  0.11938  1.0000
  Au  Au23      1.0  0.49575  0.88913  0.49575  1.0000
  Au  Au24      1.0  0.11938  0.49575  0.88913  1.0000
  Au  Au25      1.0  0.88913  0.49575  0.11938  1.0000
  Au  Au26      1.0  0.49575  0.11938  0.49575  1.0000
  Au  Au27      1.0  0.27684  0.90772  0.90772  1.0000
  Au  Au28      1.0  0.90772  0.27684  0.90772  1.0000
  Au  Au29      1.0  0.90772  0.90772  0.27684  1.0000
  Au  Au30      1.0  0.90772  0.90772  0.90772  1.0000
  Au  Au31      1.0  0.97350  0.34217  0.34217  1.0000
  Au  Au32      1.0  0.34217  0.97350  0.34217  1.0000
  Au  Au33      1.0  0.34217  0.34217  0.97350  1.0000
  Au  Au34      1.0  0.34217  0.34217  0.34217  1.0000
