data_image0
_chemical_formula_structural       Pd3Ag12
_chemical_formula_sum              "Pd3 Ag12"
_cell_length_a       8.83413
_cell_length_b       8.83413
_cell_length_c       8.83413
_cell_angle_alpha    68.9694
_cell_angle_beta     68.9694
_cell_angle_gamma    68.9694

_space_group_name_H-M_alt    "P 1"
_space_group_IT_number       1

loop_
  _space_group_symop_operation_xyz
  'x, y, z'

loop_
  _atom_site_type_symbol
  _atom_site_label
  _atom_site_symmetry_multiplicity
  _atom_site_fract_x
  _atom_site_fract_y
  _atom_site_fract_z
  _atom_site_occupancy
  Pd  Pd1       1.0  0.32568  0.32568  0.32568  1.0000
  Pd  Pd2       1.0  0.67432  0.67432  0.67432  1.0000
  Pd  Pd3       1.0  0.50000  0.50000  0.50000  1.0000
  Ag  Ag1       1.0  0.27474  0.82272  0.82272  1.0000
  Ag  Ag2       1.0  0.82272  0.82272  0.27474  1.0000
  Ag  Ag3       1.0  0.82272  0.27474  0.82272  1.0000
  Ag  Ag4       1.0  0.17728  0.72526  0.17728  1.0000
  Ag  Ag5       1.0  0.17728  0.17728  0.72526  1.0000
  Ag  Ag6       1.0  0.72526  0.17728  0.17728  1.0000
  Ag  Ag7       1.0  0.67700  0.98584  0.98584  1.0000
  Ag  Ag8       1.0  0.98584  0.98584  0.67700  1.0000
  Ag  Ag9       1.0  0.98584  0.67700  0.98584  1.0000
  Ag  Ag10      1.0  0.01416  0.32300  0.01416  1.0000
  Ag  Ag11      1.0  0.01416  0.01416  0.32300  1.0000
  Ag  Ag12      1.0  0.32300  0.01416  0.01416  1.0000
