data_image0
_chemical_formula_structural       Pd2Ag16
_chemical_formula_sum              "Pd2 Ag16"
_cell_length_a       15.0535
_cell_length_b       14.4211
_cell_length_c       6.10308
_cell_angle_alpha    83.9317
_cell_angle_beta     72.2928
_cell_angle_gamma    23.7755

_space_group_name_H-M_alt    "P 1"
_space_group_IT_number       1

loop_
  _space_group_symop_operation_xyz
  'x, y, z'

loop_
  _atom_site_type_symbol
  _atom_site_label
  _atom_site_symmetry_multiplicity
  _atom_site_fract_x
  _atom_site_fract_y
  _atom_site_fract_z
  _atom_site_occupancy
  Pd  Pd1       1.0  0.50000  0.50000  0.50000  1.0000
  Pd  Pd2       1.0  0.75000  0.75000  0.75000  1.0000
  Ag  Ag1       1.0  0.79166  0.45830  0.54147  1.0000
  Ag  Ag2       1.0  0.54147  0.20856  0.79166  1.0000
  Ag  Ag3       1.0  0.45831  0.79166  0.20856  1.0000
  Ag  Ag4       1.0  0.79170  0.45834  0.04144  1.0000
  Ag  Ag5       1.0  0.95716  0.29070  0.70958  1.0000
  Ag  Ag6       1.0  0.04256  0.70958  0.29070  1.0000
  Ag  Ag7       1.0  0.70853  0.04144  0.45834  1.0000
  Ag  Ag8       1.0  0.29284  0.95930  0.54042  1.0000
  Ag  Ag9       1.0  0.95930  0.29284  0.20744  1.0000
  Ag  Ag10      1.0  0.20744  0.54042  0.95930  1.0000
  Ag  Ag11      1.0  0.04144  0.70853  0.79170  1.0000
  Ag  Ag12      1.0  0.45834  0.79170  0.70853  1.0000
  Ag  Ag13      1.0  0.20856  0.54147  0.45830  1.0000
  Ag  Ag14      1.0  0.29070  0.95716  0.04256  1.0000
  Ag  Ag15      1.0  0.54042  0.20744  0.29284  1.0000
  Ag  Ag16      1.0  0.70958  0.04256  0.95716  1.0000
