data_image0
_chemical_formula_structural       Ag8Pd6
_chemical_formula_sum              "Ag8 Pd6"
_cell_length_a       7.39851
_cell_length_b       7.39851
_cell_length_c       10.884
_cell_angle_alpha    71.0826
_cell_angle_beta     71.0826
_cell_angle_gamma    34.1568

_space_group_name_H-M_alt    "P 1"
_space_group_IT_number       1

loop_
  _space_group_symop_operation_xyz
  'x, y, z'

loop_
  _atom_site_type_symbol
  _atom_site_label
  _atom_site_symmetry_multiplicity
  _atom_site_fract_x
  _atom_site_fract_y
  _atom_site_fract_z
  _atom_site_occupancy
  Ag  Ag1       1.0  0.43998  0.43998  0.64638  1.0000
  Ag  Ag2       1.0  0.56002  0.56002  0.35362  1.0000
  Ag  Ag3       1.0  0.20913  0.20913  0.84750  1.0000
  Ag  Ag4       1.0  0.79087  0.79087  0.15250  1.0000
  Ag  Ag5       1.0  0.63672  0.63672  0.52381  1.0000
  Ag  Ag6       1.0  0.36328  0.36328  0.47619  1.0000
  Ag  Ag7       1.0  0.00000  0.00000  0.00000  1.0000
  Ag  Ag8       1.0  0.00000  0.00000  0.50000  1.0000
  Pd  Pd1       1.0  0.78595  0.78595  0.66461  1.0000
  Pd  Pd2       1.0  0.21405  0.21405  0.33539  1.0000
  Pd  Pd3       1.0  0.37084  0.37084  0.95874  1.0000
  Pd  Pd4       1.0  0.62916  0.62916  0.04126  1.0000
  Pd  Pd5       1.0  0.05679  0.05679  0.72508  1.0000
  Pd  Pd6       1.0  0.94321  0.94321  0.27492  1.0000
