data_image0
_chemical_formula_structural       Pd2Au30
_chemical_formula_sum              "Pd2 Au30"
_cell_length_a       8.81876
_cell_length_b       8.81876
_cell_length_c       8.81876
_cell_angle_alpha    132.541
_cell_angle_beta     109.207
_cell_angle_gamma    89.7074

_space_group_name_H-M_alt    "P 1"
_space_group_IT_number       1

loop_
  _space_group_symop_operation_xyz
  'x, y, z'

loop_
  _atom_site_type_symbol
  _atom_site_label
  _atom_site_symmetry_multiplicity
  _atom_site_fract_x
  _atom_site_fract_y
  _atom_site_fract_z
  _atom_site_occupancy
  Pd  Pd1       1.0  0.91122  0.25000  0.66122  1.0000
  Pd  Pd2       1.0  0.08878  0.75000  0.33878  1.0000
  Au  Au1       1.0  0.50300  0.25000  0.25300  1.0000
  Au  Au2       1.0  0.49700  0.75000  0.74700  1.0000
  Au  Au3       1.0  0.55178  0.39878  0.15300  1.0000
  Au  Au4       1.0  0.44822  0.60122  0.84700  1.0000
  Au  Au5       1.0  0.25422  0.10122  0.15300  1.0000
  Au  Au6       1.0  0.74578  0.89878  0.84700  1.0000
  Au  Au7       1.0  0.28890  0.33520  0.95371  1.0000
  Au  Au8       1.0  0.71110  0.66480  0.04629  1.0000
  Au  Au9       1.0  0.11851  0.16480  0.95371  1.0000
  Au  Au10      1.0  0.88149  0.83520  0.04629  1.0000
  Au  Au11      1.0  0.74853  0.35471  0.39382  1.0000
  Au  Au12      1.0  0.25147  0.64529  0.60618  1.0000
  Au  Au13      1.0  0.53911  0.14529  0.39382  1.0000
  Au  Au14      1.0  0.46089  0.85471  0.60618  1.0000
  Au  Au15      1.0  0.28673  0.61279  0.99528  1.0000
  Au  Au16      1.0  0.71327  0.70855  0.32606  1.0000
  Au  Au17      1.0  0.88249  0.88721  0.67394  1.0000
  Au  Au18      1.0  0.11751  0.79145  0.00472  1.0000
  Au  Au19      1.0  0.71327  0.38721  0.00472  1.0000
  Au  Au20      1.0  0.28673  0.29145  0.67394  1.0000
  Au  Au21      1.0  0.11751  0.11279  0.32606  1.0000
  Au  Au22      1.0  0.88249  0.20855  0.99528  1.0000
  Au  Au23      1.0  0.45565  0.66659  0.28435  1.0000
  Au  Au24      1.0  0.54435  0.82870  0.21095  1.0000
  Au  Au25      1.0  0.11776  0.83341  0.78905  1.0000
  Au  Au26      1.0  0.88224  0.67130  0.71565  1.0000
  Au  Au27      1.0  0.54435  0.33341  0.71565  1.0000
  Au  Au28      1.0  0.45565  0.17130  0.78905  1.0000
  Au  Au29      1.0  0.88224  0.16659  0.21095  1.0000
  Au  Au30      1.0  0.11776  0.32870  0.28435  1.0000
