data_image0
_chemical_formula_structural       Ag18Pd12
_chemical_formula_sum              "Ag18 Pd12"
_cell_length_a       5.14853
_cell_length_b       9.92635
_cell_length_c       10.0709
_cell_angle_alpha    89.4735
_cell_angle_beta     90
_cell_angle_gamma    90

_space_group_name_H-M_alt    "P 1"
_space_group_IT_number       1

loop_
  _space_group_symop_operation_xyz
  'x, y, z'

loop_
  _atom_site_type_symbol
  _atom_site_label
  _atom_site_symmetry_multiplicity
  _atom_site_fract_x
  _atom_site_fract_y
  _atom_site_fract_z
  _atom_site_occupancy
  Ag  Ag1       1.0  0.24560  0.31572  0.67980  1.0000
  Ag  Ag2       1.0  0.24560  0.68428  0.32020  1.0000
  Ag  Ag3       1.0  0.74551  0.82209  0.81747  1.0000
  Ag  Ag4       1.0  0.74551  0.17791  0.18253  1.0000
  Ag  Ag5       1.0  0.75440  0.68428  0.32020  1.0000
  Ag  Ag6       1.0  0.75440  0.31572  0.67980  1.0000
  Ag  Ag7       1.0  0.25449  0.17791  0.18253  1.0000
  Ag  Ag8       1.0  0.25449  0.82209  0.81747  1.0000
  Ag  Ag9       1.0  0.50000  0.10588  0.89667  1.0000
  Ag  Ag10      1.0  0.50000  0.89412  0.10333  1.0000
  Ag  Ag11      1.0  0.00000  0.61010  0.60666  1.0000
  Ag  Ag12      1.0  0.00000  0.38991  0.39334  1.0000
  Ag  Ag13      1.0  0.00000  0.53478  0.87475  1.0000
  Ag  Ag14      1.0  0.00000  0.46522  0.12525  1.0000
  Ag  Ag15      1.0  0.50000  0.62636  0.03570  1.0000
  Ag  Ag16      1.0  0.50000  0.37364  0.96430  1.0000
  Ag  Ag17      1.0  0.00000  0.87802  0.53421  1.0000
  Ag  Ag18      1.0  0.00000  0.12198  0.46579  1.0000
  Pd  Pd1       1.0  0.50000  0.50000  0.50000  1.0000
  Pd  Pd2       1.0  0.00000  0.00000  0.00000  1.0000
  Pd  Pd3       1.0  0.50000  0.76079  0.56482  1.0000
  Pd  Pd4       1.0  0.50000  0.23921  0.43518  1.0000
  Pd  Pd5       1.0  0.00000  0.25831  0.93520  1.0000
  Pd  Pd6       1.0  0.00000  0.74169  0.06480  1.0000
  Pd  Pd7       1.0  0.50000  0.56486  0.75677  1.0000
  Pd  Pd8       1.0  0.50000  0.43514  0.24323  1.0000
  Pd  Pd9       1.0  0.00000  0.93425  0.25845  1.0000
  Pd  Pd10      1.0  0.00000  0.06575  0.74155  1.0000
  Pd  Pd11      1.0  0.50000  0.03783  0.63126  1.0000
  Pd  Pd12      1.0  0.50000  0.96217  0.36874  1.0000
