data_image0
_chemical_formula_structural       Ag18Pd8
_chemical_formula_sum              "Ag18 Pd8"
_cell_length_a       10.0224
_cell_length_b       10.0224
_cell_length_c       10.0224
_cell_angle_alpha    79.3677
_cell_angle_beta     79.3677
_cell_angle_gamma    79.3677

_space_group_name_H-M_alt    "P 1"
_space_group_IT_number       1

loop_
  _space_group_symop_operation_xyz
  'x, y, z'

loop_
  _atom_site_type_symbol
  _atom_site_label
  _atom_site_symmetry_multiplicity
  _atom_site_fract_x
  _atom_site_fract_y
  _atom_site_fract_z
  _atom_site_occupancy
  Ag  Ag1       1.0  0.13673  0.80470  0.80328  1.0000
  Ag  Ag2       1.0  0.14370  0.14276  0.46393  1.0000
  Ag  Ag3       1.0  0.14276  0.46393  0.14370  1.0000
  Ag  Ag4       1.0  0.80594  0.47327  0.47496  1.0000
  Ag  Ag5       1.0  0.80470  0.80328  0.13673  1.0000
  Ag  Ag6       1.0  0.86327  0.19672  0.19530  1.0000
  Ag  Ag7       1.0  0.80328  0.13673  0.80470  1.0000
  Ag  Ag8       1.0  0.46393  0.14370  0.14276  1.0000
  Ag  Ag9       1.0  0.85630  0.53607  0.85724  1.0000
  Ag  Ag10      1.0  0.47327  0.47496  0.80594  1.0000
  Ag  Ag11      1.0  0.85724  0.85630  0.53607  1.0000
  Ag  Ag12      1.0  0.53607  0.85724  0.85630  1.0000
  Ag  Ag13      1.0  0.47496  0.80594  0.47327  1.0000
  Ag  Ag14      1.0  0.52673  0.19406  0.52504  1.0000
  Ag  Ag15      1.0  0.52504  0.52673  0.19406  1.0000
  Ag  Ag16      1.0  0.19406  0.52504  0.52673  1.0000
  Ag  Ag17      1.0  0.19530  0.86327  0.19672  1.0000
  Ag  Ag18      1.0  0.19672  0.19530  0.86327  1.0000
  Pd  Pd1       1.0  0.16567  0.50000  0.83433  1.0000
  Pd  Pd2       1.0  0.83433  0.16567  0.50000  1.0000
  Pd  Pd3       1.0  1.00000  0.66772  0.33228  1.0000
  Pd  Pd4       1.0  0.50000  0.83433  0.16567  1.0000
  Pd  Pd5       1.0  0.00000  0.00000  0.00000  1.0000
  Pd  Pd6       1.0  0.66772  0.33228  0.00000  1.0000
  Pd  Pd7       1.0  0.50000  0.50000  0.50000  1.0000
  Pd  Pd8       1.0  0.33228  0.00000  0.66772  1.0000
