data_image0
_chemical_formula_structural       PdAg2
_chemical_formula_sum              "Pd1 Ag2"
_cell_length_a       14.9681
_cell_length_b       14.6835
_cell_length_c       4.10624
_cell_angle_alpha    85.9954
_cell_angle_beta     78.1223
_cell_angle_gamma    15.8823

_space_group_name_H-M_alt    "P 1"
_space_group_IT_number       1

loop_
  _space_group_symop_operation_xyz
  'x, y, z'

loop_
  _atom_site_type_symbol
  _atom_site_label
  _atom_site_symmetry_multiplicity
  _atom_site_fract_x
  _atom_site_fract_y
  _atom_site_fract_z
  _atom_site_occupancy
  Pd  Pd1       1.0  0.07524  0.92475  0.07525  1.0000
  Ag  Ag1       1.0  0.81008  0.32633  0.67367  1.0000
  Ag  Ag2       1.0  0.67367  0.18992  0.81008  1.0000
