data_image0
_chemical_formula_structural       Au6Pd2
_chemical_formula_sum              "Au6 Pd2"
_cell_length_a       3.53808
_cell_length_b       7.16707
_cell_length_c       12.4825
_cell_angle_alpha    76.2001
_cell_angle_beta     85.3258
_cell_angle_gamma    83.4257

_space_group_name_H-M_alt    "P 1"
_space_group_IT_number       1

loop_
  _space_group_symop_operation_xyz
  'x, y, z'

loop_
  _atom_site_type_symbol
  _atom_site_label
  _atom_site_symmetry_multiplicity
  _atom_site_fract_x
  _atom_site_fract_y
  _atom_site_fract_z
  _atom_site_occupancy
  Au  Au1       1.0  0.72871  0.34342  0.63031  1.0000
  Au  Au2       1.0  0.22606  0.44147  0.13308  1.0000
  Au  Au3       1.0  0.73609  0.13929  0.37246  1.0000
  Au  Au4       1.0  0.77394  0.55853  0.86692  1.0000
  Au  Au5       1.0  0.26391  0.86071  0.62754  1.0000
  Au  Au6       1.0  0.27129  0.65658  0.36969  1.0000
  Pd  Pd1       1.0  0.50000  0.00000  0.00000  1.0000
  Pd  Pd2       1.0  0.00000  0.00000  0.00000  1.0000
