data_image0
_chemical_formula_structural       Pd2Au10
_chemical_formula_sum              "Pd2 Au10"
_cell_length_a       5.04481
_cell_length_b       5.04481
_cell_length_c       8.99608
_cell_angle_alpha    84.9644
_cell_angle_beta     84.9644
_cell_angle_gamma    108.763

_space_group_name_H-M_alt    "P 1"
_space_group_IT_number       1

loop_
  _space_group_symop_operation_xyz
  'x, y, z'

loop_
  _atom_site_type_symbol
  _atom_site_label
  _atom_site_symmetry_multiplicity
  _atom_site_fract_x
  _atom_site_fract_y
  _atom_site_fract_z
  _atom_site_occupancy
  Pd  Pd1       1.0  0.77265  0.77265  0.71268  1.0000
  Pd  Pd2       1.0  0.22734  0.22734  0.28732  1.0000
  Au  Au1       1.0  0.27595  0.79676  0.82588  1.0000
  Au  Au2       1.0  0.20324  0.72405  0.17412  1.0000
  Au  Au3       1.0  0.79676  0.27595  0.82588  1.0000
  Au  Au4       1.0  0.72405  0.20324  0.17412  1.0000
  Au  Au5       1.0  0.35419  0.35419  0.64799  1.0000
  Au  Au6       1.0  0.64581  0.64581  0.35201  1.0000
  Au  Au7       1.0  0.25673  0.25673  0.99313  1.0000
  Au  Au8       1.0  0.74326  0.74326  0.00687  1.0000
  Au  Au9       1.0  0.81590  0.18410  0.50000  1.0000
  Au  Au10      1.0  0.18410  0.81590  0.50000  1.0000
