data_image0
_chemical_formula_structural       Ag5Pd
_chemical_formula_sum              "Ag5 Pd1"
_cell_length_a       16.5922
_cell_length_b       16.5922
_cell_length_c       16.5922
_cell_angle_alpha    13.5925
_cell_angle_beta     13.5925
_cell_angle_gamma    13.5925

_space_group_name_H-M_alt    "P 1"
_space_group_IT_number       1

loop_
  _space_group_symop_operation_xyz
  'x, y, z'

loop_
  _atom_site_type_symbol
  _atom_site_label
  _atom_site_symmetry_multiplicity
  _atom_site_fract_x
  _atom_site_fract_y
  _atom_site_fract_z
  _atom_site_occupancy
  Ag  Ag1       1.0  0.60184  0.60184  0.60184  1.0000
  Ag  Ag2       1.0  0.00000  0.00000  0.00000  1.0000
  Ag  Ag3       1.0  0.39816  0.39816  0.39816  1.0000
  Ag  Ag4       1.0  0.20028  0.20028  0.20028  1.0000
  Ag  Ag5       1.0  0.79972  0.79972  0.79972  1.0000
  Pd  Pd1       1.0  0.50000  0.50000  0.50000  1.0000
