data_image0
_chemical_formula_structural       PdAg3
_chemical_formula_sum              "Pd1 Ag3"
_cell_length_a       9.15219
_cell_length_b       9.15219
_cell_length_c       9.15219
_cell_angle_alpha    117.968
_cell_angle_beta     117.968
_cell_angle_gamma    117.968

_space_group_name_H-M_alt    "P 1"
_space_group_IT_number       1

loop_
  _space_group_symop_operation_xyz
  'x, y, z'

loop_
  _atom_site_type_symbol
  _atom_site_label
  _atom_site_symmetry_multiplicity
  _atom_site_fract_x
  _atom_site_fract_y
  _atom_site_fract_z
  _atom_site_occupancy
  Pd  Pd1       1.0  0.99990  0.99990  0.99990  1.0000
  Ag  Ag1       1.0  0.67727  0.41141  0.41141  1.0000
  Ag  Ag2       1.0  0.41141  0.67727  0.41141  1.0000
  Ag  Ag3       1.0  0.41141  0.41141  0.67727  1.0000
