data_image0
_chemical_formula_structural       Au13Pd5
_chemical_formula_sum              "Au13 Pd5"
_cell_length_a       4.43703
_cell_length_b       4.43703
_cell_length_c       16.1592
_cell_angle_alpha    90
_cell_angle_beta     90
_cell_angle_gamma    120

_space_group_name_H-M_alt    "P 1"
_space_group_IT_number       1

loop_
  _space_group_symop_operation_xyz
  'x, y, z'

loop_
  _atom_site_type_symbol
  _atom_site_label
  _atom_site_symmetry_multiplicity
  _atom_site_fract_x
  _atom_site_fract_y
  _atom_site_fract_z
  _atom_site_occupancy
  Au  Au1       1.0  0.00000  0.00000  0.50000  1.0000
  Au  Au2       1.0  0.00000  0.00000  0.67164  1.0000
  Au  Au3       1.0  0.00000  0.00000  0.32836  1.0000
  Au  Au4       1.0  0.00000  0.00000  0.83647  1.0000
  Au  Au5       1.0  0.00000  0.00000  0.16353  1.0000
  Au  Au6       1.0  0.33333  0.66667  0.94669  1.0000
  Au  Au7       1.0  0.66667  0.33333  0.05330  1.0000
  Au  Au8       1.0  0.33333  0.66667  0.44623  1.0000
  Au  Au9       1.0  0.66667  0.33333  0.55377  1.0000
  Au  Au10      1.0  0.33333  0.66667  0.28372  1.0000
  Au  Au11      1.0  0.66667  0.33333  0.71628  1.0000
  Au  Au12      1.0  0.33333  0.66667  0.11204  1.0000
  Au  Au13      1.0  0.66667  0.33333  0.88796  1.0000
  Pd  Pd1       1.0  0.00000  0.00000  0.00000  1.0000
  Pd  Pd2       1.0  0.33333  0.66667  0.77827  1.0000
  Pd  Pd3       1.0  0.66667  0.33333  0.22173  1.0000
  Pd  Pd4       1.0  0.33333  0.66667  0.60804  1.0000
  Pd  Pd5       1.0  0.66667  0.33333  0.39196  1.0000
