data_image0
_chemical_formula_structural       Ag3Pd3
_chemical_formula_sum              "Ag3 Pd3"
_cell_length_a       7.05638
_cell_length_b       7.05638
_cell_length_c       7.05638
_cell_angle_alpha    116.512
_cell_angle_beta     116.512
_cell_angle_gamma    116.512

_space_group_name_H-M_alt    "P 1"
_space_group_IT_number       1

loop_
  _space_group_symop_operation_xyz
  'x, y, z'

loop_
  _atom_site_type_symbol
  _atom_site_label
  _atom_site_symmetry_multiplicity
  _atom_site_fract_x
  _atom_site_fract_y
  _atom_site_fract_z
  _atom_site_occupancy
  Ag  Ag1       1.0  0.26352  0.00759  0.00759  1.0000
  Ag  Ag2       1.0  0.00759  0.00759  0.26352  1.0000
  Ag  Ag3       1.0  0.00759  0.26352  0.00759  1.0000
  Pd  Pd1       1.0  0.38457  0.72436  0.72437  1.0000
  Pd  Pd2       1.0  0.72436  0.72436  0.38458  1.0000
  Pd  Pd3       1.0  0.72436  0.38457  0.72437  1.0000
