data_image0
_chemical_formula_structural       Pd10Au12
_chemical_formula_sum              "Pd10 Au12"
_cell_length_a       4.31987
_cell_length_b       7.22081
_cell_length_c       15.6408
_cell_angle_alpha    88.5787
_cell_angle_beta     90
_cell_angle_gamma    90

_space_group_name_H-M_alt    "P 1"
_space_group_IT_number       1

loop_
  _space_group_symop_operation_xyz
  'x, y, z'

loop_
  _atom_site_type_symbol
  _atom_site_label
  _atom_site_symmetry_multiplicity
  _atom_site_fract_x
  _atom_site_fract_y
  _atom_site_fract_z
  _atom_site_occupancy
  Pd  Pd1       1.0  0.00000  0.00000  0.00000  1.0000
  Pd  Pd2       1.0  0.00000  0.50000  0.50000  1.0000
  Pd  Pd3       1.0  0.50000  0.32855  0.64497  1.0000
  Pd  Pd4       1.0  0.50000  0.67145  0.35503  1.0000
  Pd  Pd5       1.0  0.50000  0.68337  0.05623  1.0000
  Pd  Pd6       1.0  0.50000  0.31663  0.94377  1.0000
  Pd  Pd7       1.0  0.50000  0.80717  0.57631  1.0000
  Pd  Pd8       1.0  0.50000  0.19283  0.42369  1.0000
  Pd  Pd9       1.0  0.50000  0.31245  0.19093  1.0000
  Pd  Pd10      1.0  0.50000  0.68755  0.80907  1.0000
  Au  Au1       1.0  0.00000  0.38512  0.06476  1.0000
  Au  Au2       1.0  0.00000  0.61488  0.93524  1.0000
  Au  Au3       1.0  0.00000  0.89053  0.43653  1.0000
  Au  Au4       1.0  0.00000  0.10948  0.56346  1.0000
  Au  Au5       1.0  0.50000  0.08917  0.79761  1.0000
  Au  Au6       1.0  0.50000  0.91083  0.20239  1.0000
  Au  Au7       1.0  0.00000  0.39343  0.31784  1.0000
  Au  Au8       1.0  0.00000  0.60657  0.68216  1.0000
  Au  Au9       1.0  0.00000  0.36862  0.80619  1.0000
  Au  Au10      1.0  0.00000  0.63138  0.19381  1.0000
  Au  Au11      1.0  0.00000  0.04271  0.28093  1.0000
  Au  Au12      1.0  0.00000  0.95729  0.71907  1.0000
