data_image0
_chemical_formula_structural       Au3Pd3
_chemical_formula_sum              "Au3 Pd3"
_cell_length_a       4.88424
_cell_length_b       4.88424
_cell_length_c       4.50442
_cell_angle_alpha    90
_cell_angle_beta     90
_cell_angle_gamma    120.557

_space_group_name_H-M_alt    "P 1"
_space_group_IT_number       1

loop_
  _space_group_symop_operation_xyz
  'x, y, z'

loop_
  _atom_site_type_symbol
  _atom_site_label
  _atom_site_symmetry_multiplicity
  _atom_site_fract_x
  _atom_site_fract_y
  _atom_site_fract_z
  _atom_site_occupancy
  Au  Au1       1.0  0.99838  0.64368  0.00000  1.0000
  Au  Au2       1.0  0.64368  0.99838  0.00000  1.0000
  Au  Au3       1.0  0.02581  0.02581  0.50000  1.0000
  Pd  Pd1       1.0  0.33219  0.33219  0.00000  1.0000
  Pd  Pd2       1.0  0.33467  0.66527  0.50000  1.0000
  Pd  Pd3       1.0  0.66527  0.33467  0.50000  1.0000
