data_image0
_chemical_formula_structural       Ag10Pd6
_chemical_formula_sum              "Ag10 Pd6"
_cell_length_a       8.44785
_cell_length_b       8.44785
_cell_length_c       8.44785
_cell_angle_alpha    120.738
_cell_angle_beta     120.738
_cell_angle_gamma    88.7259

_space_group_name_H-M_alt    "P 1"
_space_group_IT_number       1

loop_
  _space_group_symop_operation_xyz
  'x, y, z'

loop_
  _atom_site_type_symbol
  _atom_site_label
  _atom_site_symmetry_multiplicity
  _atom_site_fract_x
  _atom_site_fract_y
  _atom_site_fract_z
  _atom_site_occupancy
  Ag  Ag1       1.0  0.44531  0.01583  0.18606  1.0000
  Ag  Ag2       1.0  0.98417  0.17023  0.42947  1.0000
  Ag  Ag3       1.0  0.74075  0.55469  0.57053  1.0000
  Ag  Ag4       1.0  0.82977  0.25925  0.81394  1.0000
  Ag  Ag5       1.0  0.55246  0.97842  0.80172  1.0000
  Ag  Ag6       1.0  0.02158  0.82329  0.57403  1.0000
  Ag  Ag7       1.0  0.24926  0.44754  0.42597  1.0000
  Ag  Ag8       1.0  0.17671  0.75074  0.19828  1.0000
  Ag  Ag9       1.0  0.25824  0.25824  0.00000  1.0000
  Ag  Ag10      1.0  0.74176  0.74176  0.00000  1.0000
  Pd  Pd1       1.0  0.80841  0.38906  0.20853  1.0000
  Pd  Pd2       1.0  0.61094  0.81947  0.41935  1.0000
  Pd  Pd3       1.0  0.40012  0.19159  0.58065  1.0000
  Pd  Pd4       1.0  0.18053  0.59989  0.79147  1.0000
  Pd  Pd5       1.0  0.00000  0.00000  0.00000  1.0000
  Pd  Pd6       1.0  0.50000  0.50000  0.00000  1.0000
