data_image0
_chemical_formula_structural       Pd3Au8
_chemical_formula_sum              "Pd3 Au8"
_cell_length_a       2.88675
_cell_length_b       2.88675
_cell_length_c       27.2916
_cell_angle_alpha    90
_cell_angle_beta     90
_cell_angle_gamma    120

_space_group_name_H-M_alt    "P 1"
_space_group_IT_number       1

loop_
  _space_group_symop_operation_xyz
  'x, y, z'

loop_
  _atom_site_type_symbol
  _atom_site_label
  _atom_site_symmetry_multiplicity
  _atom_site_fract_x
  _atom_site_fract_y
  _atom_site_fract_z
  _atom_site_occupancy
  Pd  Pd1       1.0  0.00000  0.00000  0.70840  1.0000
  Pd  Pd2       1.0  0.00000  0.00000  0.54163  1.0000
  Pd  Pd3       1.0  0.00000  0.00000  0.37431  1.0000
  Au  Au1       1.0  0.00000  0.00000  0.20792  1.0000
  Au  Au2       1.0  0.00000  0.00000  0.04243  1.0000
  Au  Au3       1.0  0.66667  0.33333  0.95907  1.0000
  Au  Au4       1.0  0.66667  0.33333  0.79242  1.0000
  Au  Au5       1.0  0.66667  0.33333  0.62474  1.0000
  Au  Au6       1.0  0.66667  0.33333  0.45819  1.0000
  Au  Au7       1.0  0.66667  0.33333  0.29104  1.0000
  Au  Au8       1.0  0.66667  0.33333  0.12484  1.0000
