data_image0
_chemical_formula_structural       Pd3Ag5
_chemical_formula_sum              "Pd3 Ag5"
_cell_length_a       7.33909
_cell_length_b       7.33909
_cell_length_c       3.30336
_cell_angle_alpha    90
_cell_angle_beta     90
_cell_angle_gamma    120

_space_group_name_H-M_alt    "P 1"
_space_group_IT_number       1

loop_
  _space_group_symop_operation_xyz
  'x, y, z'

loop_
  _atom_site_type_symbol
  _atom_site_label
  _atom_site_symmetry_multiplicity
  _atom_site_fract_x
  _atom_site_fract_y
  _atom_site_fract_z
  _atom_site_occupancy
  Pd  Pd1       1.0  0.72863  0.00000  0.00000  1.0000
  Pd  Pd2       1.0  0.27137  0.27137  0.00000  1.0000
  Pd  Pd3       1.0  1.00000  0.72863  0.00000  1.0000
  Ag  Ag1       1.0  0.33333  0.66667  0.00000  1.0000
  Ag  Ag2       1.0  0.66667  0.33333  0.00000  1.0000
  Ag  Ag3       1.0  0.35947  0.00000  0.50000  1.0000
  Ag  Ag4       1.0  0.64053  0.64052  0.50000  1.0000
  Ag  Ag5       1.0  0.00000  0.35947  0.50000  1.0000
