data_image0
_chemical_formula_structural       Pd4Au16
_chemical_formula_sum              "Pd4 Au16"
_cell_length_a       3.85355
_cell_length_b       3.85355
_cell_length_c       19.3584
_cell_angle_alpha    90
_cell_angle_beta     90
_cell_angle_gamma    90

_space_group_name_H-M_alt    "P 1"
_space_group_IT_number       1

loop_
  _space_group_symop_operation_xyz
  'x, y, z'

loop_
  _atom_site_type_symbol
  _atom_site_label
  _atom_site_symmetry_multiplicity
  _atom_site_fract_x
  _atom_site_fract_y
  _atom_site_fract_z
  _atom_site_occupancy
  Pd  Pd1       1.0  0.00000  0.00000  0.19658  1.0000
  Pd  Pd2       1.0  0.00000  0.00000  0.39945  1.0000
  Pd  Pd3       1.0  0.00000  0.00000  0.60055  1.0000
  Pd  Pd4       1.0  0.00000  0.00000  0.80342  1.0000
  Au  Au1       1.0  0.50000  0.50000  0.00000  1.0000
  Au  Au2       1.0  0.50000  0.50000  0.20037  1.0000
  Au  Au3       1.0  0.50000  0.50000  0.40022  1.0000
  Au  Au4       1.0  0.50000  0.50000  0.59978  1.0000
  Au  Au5       1.0  0.50000  0.50000  0.79963  1.0000
  Au  Au6       1.0  0.50000  0.00000  0.10144  1.0000
  Au  Au7       1.0  0.50000  0.00000  0.30038  1.0000
  Au  Au8       1.0  0.50000  0.00000  0.50000  1.0000
  Au  Au9       1.0  0.50000  0.00000  0.69962  1.0000
  Au  Au10      1.0  0.50000  0.00000  0.89856  1.0000
  Au  Au11      1.0  0.00000  0.50000  0.10144  1.0000
  Au  Au12      1.0  0.00000  0.50000  0.30038  1.0000
  Au  Au13      1.0  0.00000  0.50000  0.50000  1.0000
  Au  Au14      1.0  0.00000  0.50000  0.69962  1.0000
  Au  Au15      1.0  0.00000  0.50000  0.89856  1.0000
  Au  Au16      1.0  0.00000  0.00000  0.00000  1.0000
