data_image0
_chemical_formula_structural       Ag8Pd8
_chemical_formula_sum              "Ag8 Pd8"
_cell_length_a       10.9032
_cell_length_b       10.9032
_cell_length_c       14.4301
_cell_angle_alpha    80.4797
_cell_angle_beta     80.4797
_cell_angle_gamma    83.9858

_space_group_name_H-M_alt    "P 1"
_space_group_IT_number       1

loop_
  _space_group_symop_operation_xyz
  'x, y, z'

loop_
  _atom_site_type_symbol
  _atom_site_label
  _atom_site_symmetry_multiplicity
  _atom_site_fract_x
  _atom_site_fract_y
  _atom_site_fract_z
  _atom_site_occupancy
  Ag  Ag1       1.0  0.79192  0.19577  0.41929  1.0000
  Ag  Ag2       1.0  0.80423  0.20808  0.08071  1.0000
  Ag  Ag3       1.0  0.20808  0.80423  0.58071  1.0000
  Ag  Ag4       1.0  0.19577  0.79192  0.91929  1.0000
  Ag  Ag5       1.0  0.76377  0.51544  0.14513  1.0000
  Ag  Ag6       1.0  0.48456  0.23623  0.35487  1.0000
  Ag  Ag7       1.0  0.23623  0.48456  0.85487  1.0000
  Ag  Ag8       1.0  0.51544  0.76377  0.64513  1.0000
  Pd  Pd1       1.0  0.48283  0.51717  0.25000  1.0000
  Pd  Pd2       1.0  0.51717  0.48283  0.75000  1.0000
  Pd  Pd3       1.0  0.93917  0.06083  0.25000  1.0000
  Pd  Pd4       1.0  0.06083  0.93917  0.75000  1.0000
  Pd  Pd5       1.0  0.88558  0.46405  0.33468  1.0000
  Pd  Pd6       1.0  0.53595  0.11442  0.16532  1.0000
  Pd  Pd7       1.0  0.11442  0.53595  0.66532  1.0000
  Pd  Pd8       1.0  0.46405  0.88558  0.83468  1.0000
