data_image0
_chemical_formula_structural       Pd2Au4
_chemical_formula_sum              "Pd2 Au4"
_cell_length_a       7.63011
_cell_length_b       7.95825
_cell_length_c       8.00555
_cell_angle_alpha    64.865
_cell_angle_beta     65.9689
_cell_angle_gamma    77.3676

_space_group_name_H-M_alt    "P 1"
_space_group_IT_number       1

loop_
  _space_group_symop_operation_xyz
  'x, y, z'

loop_
  _atom_site_type_symbol
  _atom_site_label
  _atom_site_symmetry_multiplicity
  _atom_site_fract_x
  _atom_site_fract_y
  _atom_site_fract_z
  _atom_site_occupancy
  Pd  Pd1       1.0  0.49914  0.86602  0.86364  1.0000
  Pd  Pd2       1.0  0.50086  0.13398  0.13636  1.0000
  Au  Au1       1.0  0.77992  0.98395  0.89794  1.0000
  Au  Au2       1.0  0.22008  0.01606  0.10206  1.0000
  Au  Au3       1.0  0.50000  0.00000  0.50000  1.0000
  Au  Au4       1.0  0.50000  0.50000  0.00000  1.0000
