data_image0
_chemical_formula_structural       Pd2C6
_chemical_formula_sum              "Pd2 C6"
_cell_length_a       6.22039
_cell_length_b       6.21851
_cell_length_c       6.21919
_cell_angle_alpha    118.349
_cell_angle_beta     61.6314
_cell_angle_gamma    118.362

_space_group_name_H-M_alt    "P 1"
_space_group_IT_number       1

loop_
  _space_group_symop_operation_xyz
  'x, y, z'

loop_
  _atom_site_type_symbol
  _atom_site_label
  _atom_site_symmetry_multiplicity
  _atom_site_fract_x
  _atom_site_fract_y
  _atom_site_fract_z
  _atom_site_occupancy
  Pd  Pd1       1.0  0.50000  0.50000  0.50000  1.0000
  Pd  Pd2       1.0  0.00000  0.00000  0.00000  1.0000
  C   C1        1.0  0.24981  0.24980  0.75021  1.0000
  C   C2        1.0  0.75019  0.75023  0.24982  1.0000
  C   C3        1.0  0.74983  0.74986  0.74982  1.0000
  C   C4        1.0  0.25020  0.25014  0.25014  1.0000
  C   C5        1.0  0.74992  0.25001  0.25003  1.0000
  C   C6        1.0  0.25005  0.74996  0.74997  1.0000
