data_image0
_chemical_formula_structural       Au3Pd3
_chemical_formula_sum              "Au3 Pd3"
_cell_length_a       11.3605
_cell_length_b       11.3605
_cell_length_c       11.3605
_cell_angle_alpha    22.8897
_cell_angle_beta     22.8897
_cell_angle_gamma    22.8897

_space_group_name_H-M_alt    "P 1"
_space_group_IT_number       1

loop_
  _space_group_symop_operation_xyz
  'x, y, z'

loop_
  _atom_site_type_symbol
  _atom_site_label
  _atom_site_symmetry_multiplicity
  _atom_site_fract_x
  _atom_site_fract_y
  _atom_site_fract_z
  _atom_site_occupancy
  Au  Au1       1.0  0.00001  0.00001  0.00001  1.0000
  Au  Au2       1.0  0.77777  0.77777  0.77777  1.0000
  Au  Au3       1.0  0.55556  0.55556  0.55556  1.0000
  Pd  Pd1       1.0  0.91667  0.91667  0.91667  1.0000
  Pd  Pd2       1.0  0.47219  0.47219  0.47219  1.0000
  Pd  Pd3       1.0  0.69447  0.69447  0.69447  1.0000
