data_image0
_chemical_formula_structural       Pd6C18
_chemical_formula_sum              "Pd6 C18"
_cell_length_a       8.57246
_cell_length_b       8.57246
_cell_length_c       8.84469
_cell_angle_alpha    90
_cell_angle_beta     90
_cell_angle_gamma    119.931

_space_group_name_H-M_alt    "P 1"
_space_group_IT_number       1

loop_
  _space_group_symop_operation_xyz
  'x, y, z'

loop_
  _atom_site_type_symbol
  _atom_site_label
  _atom_site_symmetry_multiplicity
  _atom_site_fract_x
  _atom_site_fract_y
  _atom_site_fract_z
  _atom_site_occupancy
  Pd  Pd1       1.0  0.50000  0.50000  0.00000  1.0000
  Pd  Pd2       1.0  0.00000  0.50000  0.00000  1.0000
  Pd  Pd3       1.0  0.50000  0.50000  0.50000  1.0000
  Pd  Pd4       1.0  0.50000  0.00000  0.50000  1.0000
  Pd  Pd5       1.0  0.50000  0.00000  0.00000  1.0000
  Pd  Pd6       1.0  0.00000  0.50000  0.50000  1.0000
  C   C1        1.0  0.46406  0.99455  0.75000  1.0000
  C   C2        1.0  0.48224  0.51777  0.25000  1.0000
  C   C3        1.0  0.21054  0.42090  0.98001  1.0000
  C   C4        1.0  0.57910  0.78946  0.98001  1.0000
  C   C5        1.0  0.99455  0.46406  0.25000  1.0000
  C   C6        1.0  0.00545  0.53594  0.75000  1.0000
  C   C7        1.0  0.42090  0.21054  0.01999  1.0000
  C   C8        1.0  0.57910  0.78946  0.51999  1.0000
  C   C9        1.0  0.78946  0.57910  0.48001  1.0000
  C   C10       1.0  0.78780  0.21220  0.52558  1.0000
  C   C11       1.0  0.53594  0.00545  0.25000  1.0000
  C   C12       1.0  0.78780  0.21220  0.97442  1.0000
  C   C13       1.0  0.21220  0.78780  0.02558  1.0000
  C   C14       1.0  0.78946  0.57910  0.01999  1.0000
  C   C15       1.0  0.21220  0.78780  0.47442  1.0000
  C   C16       1.0  0.42090  0.21054  0.48001  1.0000
  C   C17       1.0  0.51777  0.48223  0.75000  1.0000
  C   C18       1.0  0.21054  0.42090  0.51999  1.0000
