data_image0
_chemical_formula_structural       Pd4C8
_chemical_formula_sum              "Pd4 C8"
_cell_length_a       3.23112
_cell_length_b       3.31013
_cell_length_c       3.72536
_cell_angle_alpha    58.373
_cell_angle_beta     90
_cell_angle_gamma    90

_space_group_name_H-M_alt    "P 1"
_space_group_IT_number       1

loop_
  _space_group_symop_operation_xyz
  'x, y, z'

loop_
  _atom_site_type_symbol
  _atom_site_label
  _atom_site_symmetry_multiplicity
  _atom_site_fract_x
  _atom_site_fract_y
  _atom_site_fract_z
  _atom_site_occupancy
  Pd  Pd1       1.0  0.42253  0.02322  0.49379  1.0000
  Pd  Pd2       1.0  0.57747  0.02322  0.99379  1.0000
  Pd  Pd3       1.0  0.92667  0.29166  0.49392  1.0000
  Pd  Pd4       1.0  0.07333  0.29166  0.99392  1.0000
  C   C1        1.0  0.77124  0.39926  0.74450  1.0000
  C   C2        1.0  0.22875  0.39926  0.24450  1.0000
  C   C3        1.0  0.77194  0.66483  0.22777  1.0000
  C   C4        1.0  0.22806  0.66483  0.72777  1.0000
  C   C5        1.0  0.75298  0.14992  0.24897  1.0000
  C   C6        1.0  0.24702  0.14992  0.74897  1.0000
  C   C7        1.0  0.72325  0.91849  0.73886  1.0000
  C   C8        1.0  0.27675  0.91849  0.23886  1.0000
