data_image0
_chemical_formula_structural       Pd2C8
_chemical_formula_sum              "Pd2 C8"
_cell_length_a       6.09964
_cell_length_b       6.49355
_cell_length_c       7.60505
_cell_angle_alpha    90
_cell_angle_beta     90
_cell_angle_gamma    90

_space_group_name_H-M_alt    "P 1"
_space_group_IT_number       1

loop_
  _space_group_symop_operation_xyz
  'x, y, z'

loop_
  _atom_site_type_symbol
  _atom_site_label
  _atom_site_symmetry_multiplicity
  _atom_site_fract_x
  _atom_site_fract_y
  _atom_site_fract_z
  _atom_site_occupancy
  Pd  Pd1       1.0  0.75000  0.27023  0.50000  1.0000
  Pd  Pd2       1.0  0.25000  0.72977  0.50000  1.0000
  C   C1        1.0  0.75000  0.12694  0.08205  1.0000
  C   C2        1.0  0.25000  0.87306  0.91795  1.0000
  C   C3        1.0  0.75000  0.63135  0.07268  1.0000
  C   C4        1.0  0.25000  0.36865  0.92732  1.0000
  C   C5        1.0  0.75000  0.63135  0.92732  1.0000
  C   C6        1.0  0.25000  0.36865  0.07268  1.0000
  C   C7        1.0  0.25000  0.87306  0.08205  1.0000
  C   C8        1.0  0.75000  0.12694  0.91795  1.0000
