data_image0
_chemical_formula_structural       Pd6C28
_chemical_formula_sum              "Pd6 C28"
_cell_length_a       8.80409
_cell_length_b       4.37865
_cell_length_c       7.87609
_cell_angle_alpha    56.4067
_cell_angle_beta     90
_cell_angle_gamma    90

_space_group_name_H-M_alt    "P 1"
_space_group_IT_number       1

loop_
  _space_group_symop_operation_xyz
  'x, y, z'

loop_
  _atom_site_type_symbol
  _atom_site_label
  _atom_site_symmetry_multiplicity
  _atom_site_fract_x
  _atom_site_fract_y
  _atom_site_fract_z
  _atom_site_occupancy
  Pd  Pd1       1.0  0.00000  0.00000  0.00000  1.0000
  Pd  Pd2       1.0  0.50000  0.00000  0.50000  1.0000
  Pd  Pd3       1.0  0.84199  0.80311  0.38351  1.0000
  Pd  Pd4       1.0  0.34199  0.19689  0.11649  1.0000
  Pd  Pd5       1.0  0.15801  0.19689  0.61649  1.0000
  Pd  Pd6       1.0  0.65801  0.80311  0.88351  1.0000
  C   C1        1.0  0.49981  0.71275  0.18563  1.0000
  C   C2        1.0  0.99981  0.28725  0.31437  1.0000
  C   C3        1.0  0.50019  0.28725  0.81437  1.0000
  C   C4        1.0  0.00019  0.71275  0.68563  1.0000
  C   C5        1.0  0.64557  0.96259  0.14321  1.0000
  C   C6        1.0  0.14557  0.03741  0.35679  1.0000
  C   C7        1.0  0.35444  0.03741  0.85679  1.0000
  C   C8        1.0  0.85444  0.96259  0.64321  1.0000
  C   C9        1.0  0.43990  0.60886  0.82164  1.0000
  C   C10       1.0  0.93990  0.39114  0.67836  1.0000
  C   C11       1.0  0.56010  0.39114  0.17836  1.0000
  C   C12       1.0  0.06010  0.60886  0.32164  1.0000
  C   C13       1.0  0.81408  0.35214  0.96908  1.0000
  C   C14       1.0  0.31408  0.64786  0.53092  1.0000
  C   C15       1.0  0.18592  0.64786  0.03092  1.0000
  C   C16       1.0  0.68592  0.35214  0.46908  1.0000
  C   C17       1.0  0.91948  0.68458  0.87252  1.0000
  C   C18       1.0  0.41948  0.31542  0.62748  1.0000
  C   C19       1.0  0.08052  0.31542  0.12748  1.0000
  C   C20       1.0  0.58052  0.68458  0.37252  1.0000
  C   C21       1.0  0.77953  0.74690  0.13396  1.0000
  C   C22       1.0  0.27953  0.25310  0.36604  1.0000
  C   C23       1.0  0.22047  0.25310  0.86604  1.0000
  C   C24       1.0  0.72047  0.74690  0.63396  1.0000
  C   C25       1.0  0.78060  0.34823  0.77633  1.0000
  C   C26       1.0  0.28060  0.65177  0.72367  1.0000
  C   C27       1.0  0.21940  0.65177  0.22367  1.0000
  C   C28       1.0  0.71940  0.34823  0.27633  1.0000
