data_image0
_chemical_formula_structural       Pd4C20
_chemical_formula_sum              "Pd4 C20"
_cell_length_a       6.97783
_cell_length_b       6.99096
_cell_length_c       11.8433
_cell_angle_alpha    92.7796
_cell_angle_beta     97.1921
_cell_angle_gamma    114.488

_space_group_name_H-M_alt    "P 1"
_space_group_IT_number       1

loop_
  _space_group_symop_operation_xyz
  'x, y, z'

loop_
  _atom_site_type_symbol
  _atom_site_label
  _atom_site_symmetry_multiplicity
  _atom_site_fract_x
  _atom_site_fract_y
  _atom_site_fract_z
  _atom_site_occupancy
  Pd  Pd1       1.0  0.91843  0.94875  0.84937  1.0000
  Pd  Pd2       1.0  0.29494  0.30266  0.81824  1.0000
  Pd  Pd3       1.0  0.79411  0.81394  0.32246  1.0000
  Pd  Pd4       1.0  0.42825  0.44711  0.35526  1.0000
  C   C1        1.0  0.46617  0.48026  0.51285  1.0000
  C   C2        1.0  0.36423  0.13728  0.32853  1.0000
  C   C3        1.0  0.59210  0.35159  0.84717  1.0000
  C   C4        1.0  0.73498  0.50787  0.33839  1.0000
  C   C5        1.0  0.84828  0.64481  0.80286  1.0000
  C   C6        1.0  0.12009  0.38284  0.32516  1.0000
  C   C7        1.0  0.60039  0.88197  0.82798  1.0000
  C   C8        1.0  0.98546  0.25512  0.83561  1.0000
  C   C9        1.0  0.41275  0.42836  0.02926  1.0000
  C   C10       1.0  0.30203  0.31396  0.14915  1.0000
  C   C11       1.0  0.10383  0.87374  0.34923  1.0000
  C   C12       1.0  0.88843  0.93959  0.53083  1.0000
  C   C13       1.0  0.95353  0.96171  0.00693  1.0000
  C   C14       1.0  0.25479  0.27300  0.66096  1.0000
  C   C15       1.0  0.22118  0.99945  0.83777  1.0000
  C   C16       1.0  0.36113  0.61785  0.84882  1.0000
  C   C17       1.0  0.85163  0.11675  0.35576  1.0000
  C   C18       1.0  0.75865  0.79027  0.16426  1.0000
  C   C19       1.0  0.85021  0.79021  0.65468  1.0000
  C   C20       1.0  0.48561  0.74952  0.33476  1.0000
