data_image0
_chemical_formula_structural       Pd4C28
_chemical_formula_sum              "Pd4 C28"
_cell_length_a       5.77938
_cell_length_b       5.9394
_cell_length_c       5.9556
_cell_angle_alpha    90
_cell_angle_beta     90
_cell_angle_gamma    90

_space_group_name_H-M_alt    "P 1"
_space_group_IT_number       1

loop_
  _space_group_symop_operation_xyz
  'x, y, z'

loop_
  _atom_site_type_symbol
  _atom_site_label
  _atom_site_symmetry_multiplicity
  _atom_site_fract_x
  _atom_site_fract_y
  _atom_site_fract_z
  _atom_site_occupancy
  Pd  Pd1       1.0  0.78691  0.00000  0.25000  1.0000
  Pd  Pd2       1.0  0.21309  0.50000  0.75000  1.0000
  Pd  Pd3       1.0  0.21309  0.00000  0.75000  1.0000
  Pd  Pd4       1.0  0.78691  0.50000  0.25000  1.0000
  C   C1        1.0  0.56575  0.75000  0.83624  1.0000
  C   C2        1.0  0.43425  0.25000  0.16376  1.0000
  C   C3        1.0  0.56575  0.25000  0.66376  1.0000
  C   C4        1.0  0.43425  0.75000  0.33624  1.0000
  C   C5        1.0  0.83326  0.63508  0.63131  1.0000
  C   C6        1.0  0.16674  0.13508  0.36869  1.0000
  C   C7        1.0  0.83326  0.36492  0.86869  1.0000
  C   C8        1.0  0.16674  0.86492  0.13131  1.0000
  C   C9        1.0  0.16674  0.36492  0.36869  1.0000
  C   C10       1.0  0.83326  0.86492  0.63131  1.0000
  C   C11       1.0  0.16674  0.63508  0.13131  1.0000
  C   C12       1.0  0.83326  0.13508  0.86869  1.0000
  C   C13       1.0  0.74713  0.75000  0.96751  1.0000
  C   C14       1.0  0.25287  0.25000  0.03249  1.0000
  C   C15       1.0  0.74713  0.25000  0.53249  1.0000
  C   C16       1.0  0.25287  0.75000  0.46751  1.0000
  C   C17       1.0  0.90985  0.75000  0.81573  1.0000
  C   C18       1.0  0.09015  0.25000  0.18427  1.0000
  C   C19       1.0  0.90985  0.25000  0.68427  1.0000
  C   C20       1.0  0.09015  0.75000  0.31573  1.0000
  C   C21       1.0  0.61015  0.90960  0.68025  1.0000
  C   C22       1.0  0.38985  0.40960  0.31975  1.0000
  C   C23       1.0  0.61015  0.09040  0.81975  1.0000
  C   C24       1.0  0.38985  0.59040  0.18025  1.0000
  C   C25       1.0  0.38985  0.09040  0.31975  1.0000
  C   C26       1.0  0.61015  0.59040  0.68025  1.0000
  C   C27       1.0  0.38985  0.90960  0.18025  1.0000
  C   C28       1.0  0.61015  0.40960  0.81975  1.0000
