data_image0
_chemical_formula_structural       Pd4C8
_chemical_formula_sum              "Pd4 C8"
_cell_length_a       7.14177
_cell_length_b       7.14177
_cell_length_c       11.601
_cell_angle_alpha    90
_cell_angle_beta     90
_cell_angle_gamma    119.983

_space_group_name_H-M_alt    "P 1"
_space_group_IT_number       1

loop_
  _space_group_symop_operation_xyz
  'x, y, z'

loop_
  _atom_site_type_symbol
  _atom_site_label
  _atom_site_symmetry_multiplicity
  _atom_site_fract_x
  _atom_site_fract_y
  _atom_site_fract_z
  _atom_site_occupancy
  Pd  Pd1       1.0  0.83688  0.17012  0.56165  1.0000
  Pd  Pd2       1.0  0.17012  0.83688  0.43835  1.0000
  Pd  Pd3       1.0  0.16312  0.82988  0.06165  1.0000
  Pd  Pd4       1.0  0.82988  0.16312  0.93835  1.0000
  C   C1        1.0  0.83159  0.16841  0.75000  1.0000
  C   C2        1.0  0.16841  0.83159  0.25000  1.0000
  C   C3        1.0  0.98114  0.98114  0.00000  1.0000
  C   C4        1.0  0.02679  0.50788  0.00277  1.0000
  C   C5        1.0  0.50788  0.02679  0.99723  1.0000
  C   C6        1.0  0.01886  0.01886  0.50000  1.0000
  C   C7        1.0  0.97321  0.49212  0.50277  1.0000
  C   C8        1.0  0.49212  0.97321  0.49723  1.0000
