data_image0
_chemical_formula_structural       C12Pd3
_chemical_formula_sum              "C12 Pd3"
_cell_length_a       4.94817
_cell_length_b       4.94817
_cell_length_c       4.63556
_cell_angle_alpha    90
_cell_angle_beta     90
_cell_angle_gamma    120

_space_group_name_H-M_alt    "P 1"
_space_group_IT_number       1

loop_
  _space_group_symop_operation_xyz
  'x, y, z'

loop_
  _atom_site_type_symbol
  _atom_site_label
  _atom_site_symmetry_multiplicity
  _atom_site_fract_x
  _atom_site_fract_y
  _atom_site_fract_z
  _atom_site_occupancy
  C   C1        1.0  0.65992  0.00000  0.28547  1.0000
  C   C2        1.0  0.00000  0.65992  0.28547  1.0000
  C   C3        1.0  0.34008  0.34008  0.28547  1.0000
  C   C4        1.0  0.00000  0.34008  0.28547  1.0000
  C   C5        1.0  0.34008  0.00000  0.28547  1.0000
  C   C6        1.0  0.65992  0.65992  0.28547  1.0000
  C   C7        1.0  0.00000  0.34008  0.71453  1.0000
  C   C8        1.0  0.65992  0.65992  0.71453  1.0000
  C   C9        1.0  0.34008  0.00000  0.71453  1.0000
  C   C10       1.0  0.65992  0.00000  0.71453  1.0000
  C   C11       1.0  0.34008  0.34008  0.71453  1.0000
  C   C12       1.0  0.00000  0.65992  0.71453  1.0000
  Pd  Pd1       1.0  0.66667  0.33333  0.00000  1.0000
  Pd  Pd2       1.0  0.00000  0.00000  0.50000  1.0000
  Pd  Pd3       1.0  0.33333  0.66667  0.00000  1.0000
