data_image0
_chemical_formula_structural       Pd2Au8
_chemical_formula_sum              "Pd2 Au8"
_cell_length_a       7.96617
_cell_length_b       7.9677
_cell_length_c       10.3315
_cell_angle_alpha    115.242
_cell_angle_beta     112.386
_cell_angle_gamma    90.084

_space_group_name_H-M_alt    "P 1"
_space_group_IT_number       1

loop_
  _space_group_symop_operation_xyz
  'x, y, z'

loop_
  _atom_site_type_symbol
  _atom_site_label
  _atom_site_symmetry_multiplicity
  _atom_site_fract_x
  _atom_site_fract_y
  _atom_site_fract_z
  _atom_site_occupancy
  Pd  Pd1       1.0  0.99627  0.49869  0.99727  1.0000
  Pd  Pd2       1.0  0.49899  0.00007  0.99824  1.0000
  Au  Au1       1.0  0.87559  0.35735  0.21539  1.0000
  Au  Au2       1.0  0.63688  0.15723  0.77478  1.0000
  Au  Au3       1.0  0.13109  0.63962  0.78122  1.0000
  Au  Au4       1.0  0.14719  0.13970  0.78247  1.0000
  Au  Au5       1.0  0.35021  0.84246  0.22417  1.0000
  Au  Au6       1.0  0.37476  0.34326  0.22509  1.0000
  Au  Au7       1.0  0.83978  0.85799  0.21513  1.0000
  Au  Au8       1.0  0.63388  0.65628  0.77371  1.0000
