data_image0
_chemical_formula_structural       PdC8
_chemical_formula_sum              "Pd1 C8"
_cell_length_a       4.97771
_cell_length_b       4.97771
_cell_length_c       4.97771
_cell_angle_alpha    162.053
_cell_angle_beta     135.66
_cell_angle_gamma    48.199

_space_group_name_H-M_alt    "P 1"
_space_group_IT_number       1

loop_
  _space_group_symop_operation_xyz
  'x, y, z'

loop_
  _atom_site_type_symbol
  _atom_site_label
  _atom_site_symmetry_multiplicity
  _atom_site_fract_x
  _atom_site_fract_y
  _atom_site_fract_z
  _atom_site_occupancy
  Pd  Pd1       1.0  0.74940  0.74940  0.00000  1.0000
  C   C1        1.0  0.31695  0.81695  0.50000  1.0000
  C   C2        1.0  0.18365  0.18365  0.00000  1.0000
  C   C3        1.0  0.53715  0.03715  0.50000  1.0000
  C   C4        1.0  0.96299  0.96299  0.00000  1.0000
  C   C5        1.0  0.88084  0.58073  0.30011  1.0000
  C   C6        1.0  0.62016  0.41870  0.20146  1.0000
  C   C7        1.0  0.21724  0.41870  0.79854  1.0000
  C   C8        1.0  0.28062  0.58073  0.69989  1.0000
