data_image0
_chemical_formula_structural       Pd2Au6
_chemical_formula_sum              "Pd2 Au6"
_cell_length_a       7.04009
_cell_length_b       7.04009
_cell_length_c       7.04009
_cell_angle_alpha    62.9199
_cell_angle_beta     62.9199
_cell_angle_gamma    62.9199

_space_group_name_H-M_alt    "P 1"
_space_group_IT_number       1

loop_
  _space_group_symop_operation_xyz
  'x, y, z'

loop_
  _atom_site_type_symbol
  _atom_site_label
  _atom_site_symmetry_multiplicity
  _atom_site_fract_x
  _atom_site_fract_y
  _atom_site_fract_z
  _atom_site_occupancy
  Pd  Pd1       1.0  0.82854  0.82854  0.82854  1.0000
  Pd  Pd2       1.0  0.17146  0.17146  0.17146  1.0000
  Au  Au1       1.0  0.90907  0.24733  0.59342  1.0000
  Au  Au2       1.0  0.59342  0.90907  0.24733  1.0000
  Au  Au3       1.0  0.24733  0.59342  0.90907  1.0000
  Au  Au4       1.0  0.75267  0.40658  0.09093  1.0000
  Au  Au5       1.0  0.40658  0.09093  0.75267  1.0000
  Au  Au6       1.0  0.09093  0.75267  0.40658  1.0000
