data_image0
_chemical_formula_structural       Pd4C34
_chemical_formula_sum              "Pd4 C34"
_cell_length_a       5.00826
_cell_length_b       5.13668
_cell_length_c       5.13668
_cell_angle_alpha    120.2
_cell_angle_beta     90
_cell_angle_gamma    90

_space_group_name_H-M_alt    "P 1"
_space_group_IT_number       1

loop_
  _space_group_symop_operation_xyz
  'x, y, z'

loop_
  _atom_site_type_symbol
  _atom_site_label
  _atom_site_symmetry_multiplicity
  _atom_site_fract_x
  _atom_site_fract_y
  _atom_site_fract_z
  _atom_site_occupancy
  Pd  Pd1       1.0  0.75000  0.00056  0.99944  1.0000
  Pd  Pd2       1.0  0.25000  0.99944  0.00056  1.0000
  Pd  Pd3       1.0  0.25000  0.66688  0.33312  1.0000
  Pd  Pd4       1.0  0.75000  0.33312  0.66688  1.0000
  C   C1        1.0  0.60568  0.66629  0.33370  1.0000
  C   C2        1.0  0.39432  0.33370  0.66629  1.0000
  C   C3        1.0  0.10568  0.33370  0.66629  1.0000
  C   C4        1.0  0.89432  0.66629  0.33370  1.0000
  C   C5        1.0  0.50000  0.50000  0.00000  1.0000
  C   C6        1.0  0.50000  0.50000  0.50000  1.0000
  C   C7        1.0  0.50000  0.00000  0.50000  1.0000
  C   C8        1.0  0.00000  0.50000  0.00000  1.0000
  C   C9        1.0  0.00000  0.50000  0.50000  1.0000
  C   C10       1.0  0.00000  0.00000  0.50000  1.0000
  C   C11       1.0  0.75000  0.66935  0.04266  1.0000
  C   C12       1.0  0.75000  0.37355  0.33090  1.0000
  C   C13       1.0  0.75000  0.95814  0.62703  1.0000
  C   C14       1.0  0.75000  0.37297  0.04186  1.0000
  C   C15       1.0  0.75000  0.95734  0.33065  1.0000
  C   C16       1.0  0.75000  0.66909  0.62645  1.0000
  C   C17       1.0  0.25000  0.33065  0.95734  1.0000
  C   C18       1.0  0.25000  0.62645  0.66909  1.0000
  C   C19       1.0  0.25000  0.04186  0.37297  1.0000
  C   C20       1.0  0.25000  0.62703  0.95814  1.0000
  C   C21       1.0  0.25000  0.04266  0.66935  1.0000
  C   C22       1.0  0.25000  0.33091  0.37355  1.0000
  C   C23       1.0  0.48718  0.83233  0.66484  1.0000
  C   C24       1.0  0.48771  0.83253  0.16747  1.0000
  C   C25       1.0  0.48718  0.33516  0.16767  1.0000
  C   C26       1.0  0.51282  0.16767  0.33516  1.0000
  C   C27       1.0  0.51229  0.16747  0.83253  1.0000
  C   C28       1.0  0.51282  0.66484  0.83233  1.0000
  C   C29       1.0  0.98718  0.16767  0.33516  1.0000
  C   C30       1.0  0.98771  0.16747  0.83253  1.0000
  C   C31       1.0  0.98718  0.66484  0.83233  1.0000
  C   C32       1.0  0.01282  0.83233  0.66484  1.0000
  C   C33       1.0  0.01229  0.83253  0.16747  1.0000
  C   C34       1.0  0.01282  0.33516  0.16767  1.0000
