data_image0
_chemical_formula_structural       Pd2C46
_chemical_formula_sum              "Pd2 C46"
_cell_length_a       6.59959
_cell_length_b       6.59959
_cell_length_c       6.59959
_cell_angle_alpha    90
_cell_angle_beta     90
_cell_angle_gamma    90

_space_group_name_H-M_alt    "P 1"
_space_group_IT_number       1

loop_
  _space_group_symop_operation_xyz
  'x, y, z'

loop_
  _atom_site_type_symbol
  _atom_site_label
  _atom_site_symmetry_multiplicity
  _atom_site_fract_x
  _atom_site_fract_y
  _atom_site_fract_z
  _atom_site_occupancy
  Pd  Pd1       1.0  0.50000  0.50000  0.50000  1.0000
  Pd  Pd2       1.0  0.00000  0.00000  0.00000  1.0000
  C   C1        1.0  0.00000  0.50000  0.75000  1.0000
  C   C2        1.0  0.50000  0.25000  0.00000  1.0000
  C   C3        1.0  0.75000  0.00000  0.50000  1.0000
  C   C4        1.0  0.00000  0.50000  0.25000  1.0000
  C   C5        1.0  0.50000  0.75000  0.00000  1.0000
  C   C6        1.0  0.25000  0.00000  0.50000  1.0000
  C   C7        1.0  0.68485  0.31515  0.68485  1.0000
  C   C8        1.0  0.31515  0.68485  0.31515  1.0000
  C   C9        1.0  0.68485  0.68485  0.31515  1.0000
  C   C10       1.0  0.31515  0.31515  0.68485  1.0000
  C   C11       1.0  0.31515  0.68485  0.68485  1.0000
  C   C12       1.0  0.68485  0.31515  0.31515  1.0000
  C   C13       1.0  0.31515  0.31515  0.31515  1.0000
  C   C14       1.0  0.68485  0.68485  0.68485  1.0000
  C   C15       1.0  0.18485  0.18485  0.81515  1.0000
  C   C16       1.0  0.81515  0.81515  0.18485  1.0000
  C   C17       1.0  0.18485  0.81515  0.18485  1.0000
  C   C18       1.0  0.81515  0.18485  0.81515  1.0000
  C   C19       1.0  0.81515  0.18485  0.18485  1.0000
  C   C20       1.0  0.18485  0.81515  0.81515  1.0000
  C   C21       1.0  0.81515  0.81515  0.81515  1.0000
  C   C22       1.0  0.18485  0.18485  0.18485  1.0000
  C   C23       1.0  0.61670  0.19026  0.50000  1.0000
  C   C24       1.0  0.80974  0.50000  0.61670  1.0000
  C   C25       1.0  0.50000  0.38330  0.80974  1.0000
  C   C26       1.0  0.38330  0.80974  0.50000  1.0000
  C   C27       1.0  0.19026  0.50000  0.38330  1.0000
  C   C28       1.0  0.50000  0.61670  0.19026  1.0000
  C   C29       1.0  0.61670  0.80974  0.50000  1.0000
  C   C30       1.0  0.80974  0.50000  0.38330  1.0000
  C   C31       1.0  0.38330  0.19026  0.50000  1.0000
  C   C32       1.0  0.19026  0.50000  0.61670  1.0000
  C   C33       1.0  0.50000  0.61670  0.80974  1.0000
  C   C34       1.0  0.50000  0.38330  0.19026  1.0000
  C   C35       1.0  0.11670  0.00000  0.69027  1.0000
  C   C36       1.0  0.30973  0.11670  0.00000  1.0000
  C   C37       1.0  0.00000  0.30973  0.88330  1.0000
  C   C38       1.0  0.88330  0.00000  0.30973  1.0000
  C   C39       1.0  0.69027  0.88330  0.00000  1.0000
  C   C40       1.0  0.00000  0.69027  0.11670  1.0000
  C   C41       1.0  0.11670  0.00000  0.30973  1.0000
  C   C42       1.0  0.30973  0.88330  0.00000  1.0000
  C   C43       1.0  0.88330  0.00000  0.69027  1.0000
  C   C44       1.0  0.69027  0.11670  0.00000  1.0000
  C   C45       1.0  0.00000  0.30973  0.11670  1.0000
  C   C46       1.0  0.00000  0.69027  0.88330  1.0000
