data_image0
_chemical_formula_structural       PdAu2
_chemical_formula_sum              "Pd1 Au2"
_cell_length_a       2.72794
_cell_length_b       2.83585
_cell_length_c       28.69
_cell_angle_alpha    87.963
_cell_angle_beta     88.3236
_cell_angle_gamma    88.699

_space_group_name_H-M_alt    "P 1"
_space_group_IT_number       1

loop_
  _space_group_symop_operation_xyz
  'x, y, z'

loop_
  _atom_site_type_symbol
  _atom_site_label
  _atom_site_symmetry_multiplicity
  _atom_site_fract_x
  _atom_site_fract_y
  _atom_site_fract_z
  _atom_site_occupancy
  Pd  Pd1       1.0  0.50820  0.48800  0.49615  1.0000
  Au  Au1       1.0  0.93217  0.44620  0.19092  1.0000
  Au  Au2       1.0  0.07685  0.58812  0.81069  1.0000
