data_image0
_chemical_formula_structural       Au5Pd3
_chemical_formula_sum              "Au5 Pd3"
_cell_length_a       8.37652
_cell_length_b       8.37652
_cell_length_c       8.37652
_cell_angle_alpha    97.3026
_cell_angle_beta     97.3026
_cell_angle_gamma    97.3026

_space_group_name_H-M_alt    "P 1"
_space_group_IT_number       1

loop_
  _space_group_symop_operation_xyz
  'x, y, z'

loop_
  _atom_site_type_symbol
  _atom_site_label
  _atom_site_symmetry_multiplicity
  _atom_site_fract_x
  _atom_site_fract_y
  _atom_site_fract_z
  _atom_site_occupancy
  Au  Au1       1.0  0.38535  0.38535  0.38535  1.0000
  Au  Au2       1.0  0.56304  0.84427  0.35722  1.0000
  Au  Au3       1.0  0.84427  0.35722  0.56304  1.0000
  Au  Au4       1.0  0.35722  0.56304  0.84427  1.0000
  Au  Au5       1.0  0.72163  0.72163  0.72163  1.0000
  Pd  Pd1       1.0  0.16474  0.35941  0.60435  1.0000
  Pd  Pd2       1.0  0.35941  0.60435  0.16474  1.0000
  Pd  Pd3       1.0  0.60434  0.16474  0.35941  1.0000
