data_image0
_chemical_formula_structural       Pd2C8
_chemical_formula_sum              "Pd2 C8"
_cell_length_a       8.35118
_cell_length_b       8.35118
_cell_length_c       6.47939
_cell_angle_alpha    90
_cell_angle_beta     90
_cell_angle_gamma    137.155

_space_group_name_H-M_alt    "P 1"
_space_group_IT_number       1

loop_
  _space_group_symop_operation_xyz
  'x, y, z'

loop_
  _atom_site_type_symbol
  _atom_site_label
  _atom_site_symmetry_multiplicity
  _atom_site_fract_x
  _atom_site_fract_y
  _atom_site_fract_z
  _atom_site_occupancy
  Pd  Pd1       1.0  0.25779  0.74221  0.75000  1.0000
  Pd  Pd2       1.0  0.74221  0.25779  0.25000  1.0000
  C   C1        1.0  0.48329  0.51670  0.75000  1.0000
  C   C2        1.0  0.51671  0.48330  0.25000  1.0000
  C   C3        1.0  0.44119  0.55881  0.25000  1.0000
  C   C4        1.0  0.55881  0.44119  0.75000  1.0000
  C   C5        1.0  0.96262  0.03738  0.99067  1.0000
  C   C6        1.0  0.03738  0.96262  0.00933  1.0000
  C   C7        1.0  0.96262  0.03738  0.50933  1.0000
  C   C8        1.0  0.03738  0.96262  0.49067  1.0000
