data_image0
_chemical_formula_structural       Au7Pd5
_chemical_formula_sum              "Au7 Pd5"
_cell_length_a       6.80942
_cell_length_b       6.80942
_cell_length_c       6.80942
_cell_angle_alpha    102.805
_cell_angle_beta     102.805
_cell_angle_gamma    123.831

_space_group_name_H-M_alt    "P 1"
_space_group_IT_number       1

loop_
  _space_group_symop_operation_xyz
  'x, y, z'

loop_
  _atom_site_type_symbol
  _atom_site_label
  _atom_site_symmetry_multiplicity
  _atom_site_fract_x
  _atom_site_fract_y
  _atom_site_fract_z
  _atom_site_occupancy
  Au  Au1       1.0  0.72597  0.72597  0.42902  1.0000
  Au  Au2       1.0  0.29695  0.72597  0.00000  1.0000
  Au  Au3       1.0  0.72597  0.29695  0.00000  1.0000
  Au  Au4       1.0  0.29695  0.29695  0.57098  1.0000
  Au  Au5       1.0  0.41493  0.91493  0.50000  1.0000
  Au  Au6       1.0  0.90103  0.90103  0.00000  1.0000
  Au  Au7       1.0  0.91493  0.41493  0.50000  1.0000
  Pd  Pd1       1.0  0.93387  0.17735  0.75652  1.0000
  Pd  Pd2       1.0  0.17735  0.93387  0.75652  1.0000
  Pd  Pd3       1.0  0.17735  0.42084  0.24348  1.0000
  Pd  Pd4       1.0  0.42084  0.17735  0.24348  1.0000
  Pd  Pd5       1.0  0.49986  0.49986  0.00000  1.0000
