data_image0
_chemical_formula_structural       Pd2C6
_chemical_formula_sum              "Pd2 C6"
_cell_length_a       4.50418
_cell_length_b       6.30763
_cell_length_c       6.32094
_cell_angle_alpha    89.926
_cell_angle_beta     89.9421
_cell_angle_gamma    90.2693

_space_group_name_H-M_alt    "P 1"
_space_group_IT_number       1

loop_
  _space_group_symop_operation_xyz
  'x, y, z'

loop_
  _atom_site_type_symbol
  _atom_site_label
  _atom_site_symmetry_multiplicity
  _atom_site_fract_x
  _atom_site_fract_y
  _atom_site_fract_z
  _atom_site_occupancy
  Pd  Pd1       1.0  1.00000  0.50000  0.50000  1.0000
  Pd  Pd2       1.0  1.00000  0.00000  0.00000  1.0000
  C   C1        1.0  0.50000  0.50000  0.50000  1.0000
  C   C2        1.0  0.50000  1.00000  0.00001  1.0000
  C   C3        1.0  0.99981  0.24197  0.24129  1.0000
  C   C4        1.0  0.00018  0.75803  0.75871  1.0000
  C   C5        1.0  0.99904  0.74089  0.25816  1.0000
  C   C6        1.0  0.00097  0.25911  0.74184  1.0000
