data_image0
_chemical_formula_structural       Pd4Au30
_chemical_formula_sum              "Pd4 Au30"
_cell_length_a       12.031
_cell_length_b       12.031
_cell_length_c       12.8606
_cell_angle_alpha    85.6765
_cell_angle_beta     85.6765
_cell_angle_gamma    103.812

_space_group_name_H-M_alt    "P 1"
_space_group_IT_number       1

loop_
  _space_group_symop_operation_xyz
  'x, y, z'

loop_
  _atom_site_type_symbol
  _atom_site_label
  _atom_site_symmetry_multiplicity
  _atom_site_fract_x
  _atom_site_fract_y
  _atom_site_fract_z
  _atom_site_occupancy
  Pd  Pd1       1.0  0.73502  0.26498  0.25000  1.0000
  Pd  Pd2       1.0  0.26498  0.73502  0.75000  1.0000
  Pd  Pd3       1.0  0.20671  0.79330  0.25000  1.0000
  Pd  Pd4       1.0  0.79329  0.20670  0.75000  1.0000
  Au  Au1       1.0  0.41738  0.58262  0.25000  1.0000
  Au  Au2       1.0  0.74219  0.98590  0.94888  1.0000
  Au  Au3       1.0  0.01410  0.25781  0.55112  1.0000
  Au  Au4       1.0  0.25781  0.01410  0.05112  1.0000
  Au  Au5       1.0  0.98590  0.74219  0.44888  1.0000
  Au  Au6       1.0  0.58262  0.41738  0.75000  1.0000
  Au  Au7       1.0  0.21182  0.43965  0.77536  1.0000
  Au  Au8       1.0  0.26272  0.72242  0.00076  1.0000
  Au  Au9       1.0  0.01330  0.78501  0.77779  1.0000
  Au  Au10      1.0  0.78500  0.01330  0.27779  1.0000
  Au  Au11      1.0  0.72242  0.26272  0.50076  1.0000
  Au  Au12      1.0  0.43965  0.21182  0.27536  1.0000
  Au  Au13      1.0  0.78818  0.56036  0.22464  1.0000
  Au  Au14      1.0  0.73728  0.27758  0.99924  1.0000
  Au  Au15      1.0  0.98670  0.21500  0.22221  1.0000
  Au  Au16      1.0  0.21500  0.98670  0.72221  1.0000
  Au  Au17      1.0  0.27758  0.73728  0.49924  1.0000
  Au  Au18      1.0  0.56036  0.78818  0.72464  1.0000
  Au  Au19      1.0  0.50959  0.16370  0.78115  1.0000
  Au  Au20      1.0  0.23519  0.03575  0.38136  1.0000
  Au  Au21      1.0  0.74804  0.66651  0.41369  1.0000
  Au  Au22      1.0  0.66651  0.74804  0.91369  1.0000
  Au  Au23      1.0  0.03575  0.23519  0.88136  1.0000
  Au  Au24      1.0  0.16370  0.50959  0.28115  1.0000
  Au  Au25      1.0  0.49041  0.83630  0.21885  1.0000
  Au  Au26      1.0  0.76481  0.96425  0.61864  1.0000
  Au  Au27      1.0  0.25196  0.33349  0.58631  1.0000
  Au  Au28      1.0  0.33349  0.25196  0.08631  1.0000
  Au  Au29      1.0  0.96425  0.76481  0.11864  1.0000
  Au  Au30      1.0  0.83630  0.49041  0.71885  1.0000
