data_image0
_chemical_formula_structural       Pd3Au7
_chemical_formula_sum              "Pd3 Au7"
_cell_length_a       5.74427
_cell_length_b       5.74427
_cell_length_c       5.66176
_cell_angle_alpha    90
_cell_angle_beta     90
_cell_angle_gamma    135.157

_space_group_name_H-M_alt    "P 1"
_space_group_IT_number       1

loop_
  _space_group_symop_operation_xyz
  'x, y, z'

loop_
  _atom_site_type_symbol
  _atom_site_label
  _atom_site_symmetry_multiplicity
  _atom_site_fract_x
  _atom_site_fract_y
  _atom_site_fract_z
  _atom_site_occupancy
  Pd  Pd1       1.0  0.50000  0.50000  0.00000  1.0000
  Pd  Pd2       1.0  0.66046  0.33954  0.50000  1.0000
  Pd  Pd3       1.0  0.33954  0.66046  0.50000  1.0000
  Au  Au1       1.0  0.00000  0.00000  0.50000  1.0000
  Au  Au2       1.0  0.50000  0.00000  0.00000  1.0000
  Au  Au3       1.0  0.00000  0.50000  0.00000  1.0000
  Au  Au4       1.0  0.10721  0.89280  0.19509  1.0000
  Au  Au5       1.0  0.89280  0.10720  0.19509  1.0000
  Au  Au6       1.0  0.89280  0.10720  0.80491  1.0000
  Au  Au7       1.0  0.10721  0.89280  0.80491  1.0000
