data_image0
_chemical_formula_structural       Pd18C27
_chemical_formula_sum              "Pd18 C27"
_cell_length_a       11.3017
_cell_length_b       11.3017
_cell_length_c       11.3017
_cell_angle_alpha    60
_cell_angle_beta     60
_cell_angle_gamma    60

_space_group_name_H-M_alt    "P 1"
_space_group_IT_number       1

loop_
  _space_group_symop_operation_xyz
  'x, y, z'

loop_
  _atom_site_type_symbol
  _atom_site_label
  _atom_site_symmetry_multiplicity
  _atom_site_fract_x
  _atom_site_fract_y
  _atom_site_fract_z
  _atom_site_occupancy
  Pd  Pd1       1.0  0.09504  0.74646  0.74646  1.0000
  Pd  Pd2       1.0  0.41860  0.41860  0.08140  1.0000
  Pd  Pd3       1.0  0.41204  0.74646  0.74646  1.0000
  Pd  Pd4       1.0  0.74646  0.74646  0.09504  1.0000
  Pd  Pd5       1.0  0.41204  0.09504  0.74646  1.0000
  Pd  Pd6       1.0  0.09504  0.74646  0.41204  1.0000
  Pd  Pd7       1.0  0.74646  0.41204  0.09504  1.0000
  Pd  Pd8       1.0  0.08140  0.08140  0.41860  1.0000
  Pd  Pd9       1.0  0.09504  0.41204  0.74646  1.0000
  Pd  Pd10      1.0  0.41860  0.08140  0.41860  1.0000
  Pd  Pd11      1.0  0.41860  0.08140  0.08140  1.0000
  Pd  Pd12      1.0  0.74646  0.09504  0.74646  1.0000
  Pd  Pd13      1.0  0.74646  0.74646  0.41204  1.0000
  Pd  Pd14      1.0  0.41204  0.74646  0.09504  1.0000
  Pd  Pd15      1.0  0.74646  0.09504  0.41204  1.0000
  Pd  Pd16      1.0  0.08140  0.41860  0.08140  1.0000
  Pd  Pd17      1.0  0.08140  0.41860  0.41860  1.0000
  Pd  Pd18      1.0  0.74646  0.41204  0.74646  1.0000
  C   C1        1.0  0.65225  0.34774  0.34775  1.0000
  C   C2        1.0  0.65225  0.34774  0.65226  1.0000
  C   C3        1.0  0.65226  0.65226  0.34774  1.0000
  C   C4        1.0  0.30252  0.68055  0.00847  1.0000
  C   C5        1.0  0.67417  0.67417  0.67416  1.0000
  C   C6        1.0  0.34311  0.97068  0.34311  1.0000
  C   C7        1.0  0.00847  0.68055  0.30252  1.0000
  C   C8        1.0  0.68055  0.30252  0.00847  1.0000
  C   C9        1.0  0.30252  0.00847  0.68055  1.0000
  C   C10       1.0  0.00847  0.68055  0.00847  1.0000
  C   C11       1.0  0.97751  0.67417  0.67417  1.0000
  C   C12       1.0  0.00847  0.30252  0.00847  1.0000
  C   C13       1.0  0.67417  0.67417  0.97751  1.0000
  C   C14       1.0  0.34311  0.34311  0.97068  1.0000
  C   C15       1.0  0.00000  0.00000  0.00000  1.0000
  C   C16       1.0  0.68055  0.00847  0.30252  1.0000
  C   C17       1.0  0.34774  0.65225  0.65226  1.0000
  C   C18       1.0  0.34774  0.65225  0.34775  1.0000
  C   C19       1.0  0.97068  0.34311  0.34311  1.0000
  C   C20       1.0  0.67417  0.97751  0.67416  1.0000
  C   C21       1.0  0.30252  0.00847  0.00847  1.0000
  C   C22       1.0  0.00847  0.30252  0.68055  1.0000
  C   C23       1.0  0.68055  0.00847  0.00847  1.0000
  C   C24       1.0  0.34774  0.34774  0.65226  1.0000
  C   C25       1.0  0.34311  0.34311  0.34311  1.0000
  C   C26       1.0  0.00847  0.00847  0.68055  1.0000
  C   C27       1.0  0.00847  0.00847  0.30252  1.0000
