data_image0
_chemical_formula_structural       Pd6Au26
_chemical_formula_sum              "Pd6 Au26"
_cell_length_a       8.91777
_cell_length_b       8.91777
_cell_length_c       8.91777
_cell_angle_alpha    60
_cell_angle_beta     60
_cell_angle_gamma    60

_space_group_name_H-M_alt    "P 1"
_space_group_IT_number       1

loop_
  _space_group_symop_operation_xyz
  'x, y, z'

loop_
  _atom_site_type_symbol
  _atom_site_label
  _atom_site_symmetry_multiplicity
  _atom_site_fract_x
  _atom_site_fract_y
  _atom_site_fract_z
  _atom_site_occupancy
  Pd  Pd1       1.0  0.50000  0.50000  0.50000  1.0000
  Pd  Pd2       1.0  0.62500  0.12500  0.12500  1.0000
  Pd  Pd3       1.0  0.12500  0.12500  0.12500  1.0000
  Pd  Pd4       1.0  0.12500  0.12500  0.62500  1.0000
  Pd  Pd5       1.0  0.12500  0.62500  0.12500  1.0000
  Pd  Pd6       1.0  0.75000  0.75000  0.75000  1.0000
  Au  Au1       1.0  0.38471  0.38471  0.38471  1.0000
  Au  Au2       1.0  0.00000  0.00000  0.00000  1.0000
  Au  Au3       1.0  0.76196  0.76196  0.23804  1.0000
  Au  Au4       1.0  0.38471  0.38471  0.84587  1.0000
  Au  Au5       1.0  0.62500  0.62500  0.62500  1.0000
  Au  Au6       1.0  0.86529  0.40413  0.86529  1.0000
  Au  Au7       1.0  0.76196  0.23804  0.76196  1.0000
  Au  Au8       1.0  0.84587  0.38471  0.38471  1.0000
  Au  Au9       1.0  0.23804  0.23804  0.76196  1.0000
  Au  Au10      1.0  0.48804  0.48804  0.01196  1.0000
  Au  Au11      1.0  0.23804  0.76196  0.23804  1.0000
  Au  Au12      1.0  0.86529  0.86529  0.86529  1.0000
  Au  Au13      1.0  0.86529  0.86529  0.40413  1.0000
  Au  Au14      1.0  0.76196  0.23804  0.23804  1.0000
  Au  Au15      1.0  0.12500  0.62500  0.62500  1.0000
  Au  Au16      1.0  0.01196  0.48804  0.48804  1.0000
  Au  Au17      1.0  0.25000  0.25000  0.25000  1.0000
  Au  Au18      1.0  0.01196  0.01196  0.48804  1.0000
  Au  Au19      1.0  0.01196  0.48804  0.01196  1.0000
  Au  Au20      1.0  0.62500  0.62500  0.12500  1.0000
  Au  Au21      1.0  0.48804  0.01196  0.01196  1.0000
  Au  Au22      1.0  0.48804  0.01196  0.48804  1.0000
  Au  Au23      1.0  0.40413  0.86529  0.86529  1.0000
  Au  Au24      1.0  0.38471  0.84587  0.38471  1.0000
  Au  Au25      1.0  0.23804  0.76196  0.76196  1.0000
  Au  Au26      1.0  0.62500  0.12500  0.62500  1.0000
