data_image0
_chemical_formula_structural       Pd2C12
_chemical_formula_sum              "Pd2 C12"
_cell_length_a       3.67215
_cell_length_b       3.67215
_cell_length_c       7.73348
_cell_angle_alpha    90
_cell_angle_beta     90
_cell_angle_gamma    133.47

_space_group_name_H-M_alt    "P 1"
_space_group_IT_number       1

loop_
  _space_group_symop_operation_xyz
  'x, y, z'

loop_
  _atom_site_type_symbol
  _atom_site_label
  _atom_site_symmetry_multiplicity
  _atom_site_fract_x
  _atom_site_fract_y
  _atom_site_fract_z
  _atom_site_occupancy
  Pd  Pd1       1.0  0.27953  0.72047  0.25000  1.0000
  Pd  Pd2       1.0  0.72047  0.27953  0.75000  1.0000
  C   C1        1.0  0.97853  0.02147  0.09777  1.0000
  C   C2        1.0  0.02147  0.97853  0.90223  1.0000
  C   C3        1.0  0.75466  0.24534  0.46304  1.0000
  C   C4        1.0  0.24534  0.75466  0.53696  1.0000
  C   C5        1.0  0.24534  0.75466  0.96304  1.0000
  C   C6        1.0  0.75466  0.24534  0.03696  1.0000
  C   C7        1.0  0.43758  0.56242  0.64699  1.0000
  C   C8        1.0  0.56242  0.43758  0.35302  1.0000
  C   C9        1.0  0.56242  0.43758  0.14699  1.0000
  C   C10       1.0  0.43758  0.56242  0.85302  1.0000
  C   C11       1.0  0.97853  0.02147  0.40223  1.0000
  C   C12       1.0  0.02147  0.97853  0.59777  1.0000
