data_image0
_chemical_formula_structural       Pd2C6
_chemical_formula_sum              "Pd2 C6"
_cell_length_a       3.80284
_cell_length_b       3.80041
_cell_length_c       2.8389
_cell_angle_alpha    90
_cell_angle_beta     90
_cell_angle_gamma    119.961

_space_group_name_H-M_alt    "P 1"
_space_group_IT_number       1

loop_
  _space_group_symop_operation_xyz
  'x, y, z'

loop_
  _atom_site_type_symbol
  _atom_site_label
  _atom_site_symmetry_multiplicity
  _atom_site_fract_x
  _atom_site_fract_y
  _atom_site_fract_z
  _atom_site_occupancy
  Pd  Pd1       1.0  0.33321  0.66660  0.75000  1.0000
  Pd  Pd2       1.0  0.66661  0.33346  0.25000  1.0000
  C   C1        1.0  0.15068  0.30145  0.25000  1.0000
  C   C2        1.0  0.69862  0.84938  0.25000  1.0000
  C   C3        1.0  0.15078  0.84924  0.25000  1.0000
  C   C4        1.0  0.84931  0.69859  0.75000  1.0000
  C   C5        1.0  0.30141  0.15064  0.75000  1.0000
  C   C6        1.0  0.84937  0.15063  0.75000  1.0000
