data_image0
_chemical_formula_structural       Pd4C24
_chemical_formula_sum              "Pd4 C24"
_cell_length_a       6.40537
_cell_length_b       6.7415
_cell_length_c       11.0148
_cell_angle_alpha    90
_cell_angle_beta     90
_cell_angle_gamma    90

_space_group_name_H-M_alt    "P 1"
_space_group_IT_number       1

loop_
  _space_group_symop_operation_xyz
  'x, y, z'

loop_
  _atom_site_type_symbol
  _atom_site_label
  _atom_site_symmetry_multiplicity
  _atom_site_fract_x
  _atom_site_fract_y
  _atom_site_fract_z
  _atom_site_occupancy
  Pd  Pd1       1.0  0.23981  0.93630  0.52964  1.0000
  Pd  Pd2       1.0  0.76019  0.43630  0.47036  1.0000
  Pd  Pd3       1.0  0.23981  0.43630  0.97036  1.0000
  Pd  Pd4       1.0  0.76019  0.93630  0.02964  1.0000
  C   C1        1.0  0.96506  0.07726  0.58036  1.0000
  C   C2        1.0  0.03494  0.57726  0.41964  1.0000
  C   C3        1.0  0.96506  0.57726  0.91964  1.0000
  C   C4        1.0  0.03494  0.07726  0.08036  1.0000
  C   C5        1.0  0.90020  0.06951  0.68369  1.0000
  C   C6        1.0  0.09980  0.56951  0.31631  1.0000
  C   C7        1.0  0.90020  0.56951  0.81631  1.0000
  C   C8        1.0  0.09980  0.06951  0.18369  1.0000
  C   C9        1.0  0.82164  0.07440  0.77794  1.0000
  C   C10       1.0  0.17836  0.57440  0.22206  1.0000
  C   C11       1.0  0.82164  0.57440  0.72206  1.0000
  C   C12       1.0  0.17836  0.07440  0.27794  1.0000
  C   C13       1.0  0.51688  0.81422  0.46294  1.0000
  C   C14       1.0  0.48312  0.31422  0.53706  1.0000
  C   C15       1.0  0.51688  0.31422  0.03706  1.0000
  C   C16       1.0  0.48312  0.81422  0.96294  1.0000
  C   C17       1.0  0.59875  0.91539  0.38494  1.0000
  C   C18       1.0  0.40125  0.41539  0.61506  1.0000
  C   C19       1.0  0.59875  0.41539  0.11506  1.0000
  C   C20       1.0  0.40125  0.91539  0.88494  1.0000
  C   C21       1.0  0.68757  0.00271  0.31111  1.0000
  C   C22       1.0  0.31242  0.50271  0.68889  1.0000
  C   C23       1.0  0.68757  0.50271  0.18889  1.0000
  C   C24       1.0  0.31242  0.00271  0.81111  1.0000
