data_image0
_chemical_formula_structural       C12Pd4
_chemical_formula_sum              "C12 Pd4"
_cell_length_a       2.90427
_cell_length_b       3.14757
_cell_length_c       4.39107
_cell_angle_alpha    90
_cell_angle_beta     90
_cell_angle_gamma    90

_space_group_name_H-M_alt    "P 1"
_space_group_IT_number       1

loop_
  _space_group_symop_operation_xyz
  'x, y, z'

loop_
  _atom_site_type_symbol
  _atom_site_label
  _atom_site_symmetry_multiplicity
  _atom_site_fract_x
  _atom_site_fract_y
  _atom_site_fract_z
  _atom_site_occupancy
  C   C1        1.0  0.34729  0.16864  0.42248  1.0000
  C   C2        1.0  0.15271  0.66864  0.07752  1.0000
  C   C3        1.0  0.84729  0.33136  0.92248  1.0000
  C   C4        1.0  0.33966  0.45021  0.75000  1.0000
  C   C5        1.0  0.15271  0.66864  0.42248  1.0000
  C   C6        1.0  0.34729  0.16864  0.07752  1.0000
  C   C7        1.0  0.16034  0.95021  0.75000  1.0000
  C   C8        1.0  0.65271  0.83136  0.92248  1.0000
  C   C9        1.0  0.84729  0.33136  0.57752  1.0000
  C   C10       1.0  0.66034  0.54979  0.25000  1.0000
  C   C11       1.0  0.65271  0.83136  0.57752  1.0000
  C   C12       1.0  0.83966  0.04979  0.25000  1.0000
  Pd  Pd1       1.0  0.00000  0.00000  0.50000  1.0000
  Pd  Pd2       1.0  0.50000  0.50000  0.50000  1.0000
  Pd  Pd3       1.0  0.50000  0.50000  0.00000  1.0000
  Pd  Pd4       1.0  0.00000  0.00000  0.00000  1.0000
