data_image0
_chemical_formula_structural       C3Pd
_chemical_formula_sum              "C3 Pd1"
_cell_length_a       6.21245
_cell_length_b       6.21245
_cell_length_c       6.14969
_cell_angle_alpha    69.0282
_cell_angle_beta     69.0282
_cell_angle_gamma    106.439

_space_group_name_H-M_alt    "P 1"
_space_group_IT_number       1

loop_
  _space_group_symop_operation_xyz
  'x, y, z'

loop_
  _atom_site_type_symbol
  _atom_site_label
  _atom_site_symmetry_multiplicity
  _atom_site_fract_x
  _atom_site_fract_y
  _atom_site_fract_z
  _atom_site_occupancy
  C   C1        1.0  0.00826  0.64920  0.14134  1.0000
  C   C2        1.0  0.64920  0.00826  0.14134  1.0000
  C   C3        1.0  0.33221  0.33221  0.77562  1.0000
  Pd  Pd1       1.0  0.01032  0.01032  0.75050  1.0000
