data_image0
_chemical_formula_structural       C20Pd4
_chemical_formula_sum              "C20 Pd4"
_cell_length_a       6.14243
_cell_length_b       6.14243
_cell_length_c       9.53724
_cell_angle_alpha    85.2152
_cell_angle_beta     85.2152
_cell_angle_gamma    126.476

_space_group_name_H-M_alt    "P 1"
_space_group_IT_number       1

loop_
  _space_group_symop_operation_xyz
  'x, y, z'

loop_
  _atom_site_type_symbol
  _atom_site_label
  _atom_site_symmetry_multiplicity
  _atom_site_fract_x
  _atom_site_fract_y
  _atom_site_fract_z
  _atom_site_occupancy
  C   C1        1.0  0.70906  0.57235  0.72170  1.0000
  C   C2        1.0  0.42765  0.29094  0.77830  1.0000
  C   C3        1.0  0.29094  0.42765  0.27830  1.0000
  C   C4        1.0  0.57235  0.70906  0.22170  1.0000
  C   C5        1.0  0.07755  0.51178  0.69383  1.0000
  C   C6        1.0  0.48822  0.92245  0.80617  1.0000
  C   C7        1.0  0.92245  0.48822  0.30617  1.0000
  C   C8        1.0  0.51178  0.07755  0.19383  1.0000
  C   C9        1.0  0.05055  0.44624  0.55044  1.0000
  C   C10       1.0  0.55375  0.94945  0.94956  1.0000
  C   C11       1.0  0.94945  0.55375  0.44956  1.0000
  C   C12       1.0  0.44625  0.05055  0.05044  1.0000
  C   C13       1.0  0.89866  0.55297  0.61065  1.0000
  C   C14       1.0  0.44703  0.10134  0.88935  1.0000
  C   C15       1.0  0.10134  0.44703  0.38934  1.0000
  C   C16       1.0  0.55297  0.89866  0.11066  1.0000
  C   C17       1.0  0.01605  0.72641  0.73277  1.0000
  C   C18       1.0  0.27359  0.98395  0.76723  1.0000
  C   C19       1.0  0.98395  0.27360  0.26723  1.0000
  C   C20       1.0  0.72640  0.01605  0.23277  1.0000
  Pd  Pd1       1.0  0.65873  0.87624  0.63426  1.0000
  Pd  Pd2       1.0  0.12376  0.34127  0.86574  1.0000
  Pd  Pd3       1.0  0.34127  0.12376  0.36574  1.0000
  Pd  Pd4       1.0  0.87624  0.65873  0.13426  1.0000
