data_image0
_chemical_formula_structural       PdC12
_chemical_formula_sum              "Pd1 C12"
_cell_length_a       2.77458
_cell_length_b       3.78969
_cell_length_c       3.7922
_cell_angle_alpha    82.2226
_cell_angle_beta     68.5267
_cell_angle_gamma    68.506

_space_group_name_H-M_alt    "P 1"
_space_group_IT_number       1

loop_
  _space_group_symop_operation_xyz
  'x, y, z'

loop_
  _atom_site_type_symbol
  _atom_site_label
  _atom_site_symmetry_multiplicity
  _atom_site_fract_x
  _atom_site_fract_y
  _atom_site_fract_z
  _atom_site_occupancy
  Pd  Pd1       1.0  0.00627  0.99956  0.99819  1.0000
  C   C1        1.0  0.00619  0.36104  0.63705  1.0000
  C   C2        1.0  0.50641  0.22659  0.77123  1.0000
  C   C3        1.0  0.27653  0.22867  0.22760  1.0000
  C   C4        1.0  0.73498  0.77108  0.77006  1.0000
  C   C5        1.0  0.50516  0.99974  0.50011  1.0000
  C   C6        1.0  0.50627  0.77181  0.22607  1.0000
  C   C7        1.0  0.36699  0.63789  0.63681  1.0000
  C   C8        1.0  0.00541  0.63665  0.36208  1.0000
  C   C9        1.0  0.50753  0.49951  0.99533  1.0000
  C   C10       1.0  0.64247  0.36331  0.36261  1.0000
  C   C11       1.0  0.00792  0.49951  0.99547  1.0000
  C   C12       1.0  0.00521  0.99994  0.50003  1.0000
