data_image0
_chemical_formula_structural       Pd2Au6
_chemical_formula_sum              "Pd2 Au6"
_cell_length_a       6.77108
_cell_length_b       6.77108
_cell_length_c       6.92002
_cell_angle_alpha    80.7753
_cell_angle_beta     80.7753
_cell_angle_gamma    119.951

_space_group_name_H-M_alt    "P 1"
_space_group_IT_number       1

loop_
  _space_group_symop_operation_xyz
  'x, y, z'

loop_
  _atom_site_type_symbol
  _atom_site_label
  _atom_site_symmetry_multiplicity
  _atom_site_fract_x
  _atom_site_fract_y
  _atom_site_fract_z
  _atom_site_occupancy
  Pd  Pd1       1.0  0.83354  0.16646  0.00000  1.0000
  Pd  Pd2       1.0  0.16646  0.83354  0.00000  1.0000
  Au  Au1       1.0  0.42486  0.06727  0.22979  1.0000
  Au  Au2       1.0  0.57514  0.93273  0.77021  1.0000
  Au  Au3       1.0  0.93273  0.57514  0.77021  1.0000
  Au  Au4       1.0  0.06727  0.42486  0.22979  1.0000
  Au  Au5       1.0  0.78320  0.78320  0.23209  1.0000
  Au  Au6       1.0  0.21680  0.21680  0.76790  1.0000
