data_image0
_chemical_formula_structural       Pd2C6
_chemical_formula_sum              "Pd2 C6"
_cell_length_a       9.58262
_cell_length_b       9.58262
_cell_length_c       6.76134
_cell_angle_alpha    69.6227
_cell_angle_beta     69.6227
_cell_angle_gamma    83.6814

_space_group_name_H-M_alt    "P 1"
_space_group_IT_number       1

loop_
  _space_group_symop_operation_xyz
  'x, y, z'

loop_
  _atom_site_type_symbol
  _atom_site_label
  _atom_site_symmetry_multiplicity
  _atom_site_fract_x
  _atom_site_fract_y
  _atom_site_fract_z
  _atom_site_occupancy
  Pd  Pd1       1.0  0.00000  0.00000  0.50000  1.0000
  Pd  Pd2       1.0  0.00000  0.00000  0.00000  1.0000
  C   C1        1.0  0.08959  0.48856  0.89326  1.0000
  C   C2        1.0  0.86307  0.13693  0.25000  1.0000
  C   C3        1.0  0.51144  0.91041  0.60674  1.0000
  C   C4        1.0  0.91041  0.51144  0.10674  1.0000
  C   C5        1.0  0.13693  0.86307  0.75000  1.0000
  C   C6        1.0  0.48856  0.08959  0.39326  1.0000
