data_image0
_chemical_formula_structural       PdAu4
_chemical_formula_sum              "Pd1 Au4"
_cell_length_a       7.57379
_cell_length_b       7.57379
_cell_length_c       4.45344
_cell_angle_alpha    90
_cell_angle_beta     90
_cell_angle_gamma    94.5381

_space_group_name_H-M_alt    "P 1"
_space_group_IT_number       1

loop_
  _space_group_symop_operation_xyz
  'x, y, z'

loop_
  _atom_site_type_symbol
  _atom_site_label
  _atom_site_symmetry_multiplicity
  _atom_site_fract_x
  _atom_site_fract_y
  _atom_site_fract_z
  _atom_site_occupancy
  Pd  Pd1       1.0  0.00000  0.00000  0.00000  1.0000
  Au  Au1       1.0  0.27139  0.27139  0.00000  1.0000
  Au  Au2       1.0  0.17250  0.82750  0.50000  1.0000
  Au  Au3       1.0  0.82750  0.17250  0.50000  1.0000
  Au  Au4       1.0  0.72861  0.72861  0.00000  1.0000
