data_image0
_chemical_formula_structural       Pd2C10
_chemical_formula_sum              "Pd2 C10"
_cell_length_a       6.60868
_cell_length_b       6.60868
_cell_length_c       9.43477
_cell_angle_alpha    68.6769
_cell_angle_beta     68.6769
_cell_angle_gamma    69.2346

_space_group_name_H-M_alt    "P 1"
_space_group_IT_number       1

loop_
  _space_group_symop_operation_xyz
  'x, y, z'

loop_
  _atom_site_type_symbol
  _atom_site_label
  _atom_site_symmetry_multiplicity
  _atom_site_fract_x
  _atom_site_fract_y
  _atom_site_fract_z
  _atom_site_occupancy
  Pd  Pd1       1.0  0.00000  0.00000  0.00000  1.0000
  Pd  Pd2       1.0  0.00000  0.00000  0.50000  1.0000
  C   C1        1.0  0.07281  0.92719  0.75000  1.0000
  C   C2        1.0  0.92719  0.07281  0.25000  1.0000
  C   C3        1.0  0.75724  0.78431  0.61661  1.0000
  C   C4        1.0  0.21569  0.24276  0.88339  1.0000
  C   C5        1.0  0.69553  0.27506  0.95414  1.0000
  C   C6        1.0  0.72494  0.30447  0.54586  1.0000
  C   C7        1.0  0.30447  0.72494  0.04586  1.0000
  C   C8        1.0  0.27506  0.69553  0.45414  1.0000
  C   C9        1.0  0.78431  0.75724  0.11661  1.0000
  C   C10       1.0  0.24276  0.21569  0.38339  1.0000
