data_image0
_chemical_formula_structural       Pd2Hg8
_chemical_formula_sum              "Pd2 Hg8"
_cell_length_a       11.3711
_cell_length_b       11.3711
_cell_length_c       11.3711
_cell_angle_alpha    128.546
_cell_angle_beta     128.546
_cell_angle_gamma    75.7415

_space_group_name_H-M_alt    "P 1"
_space_group_IT_number       1

loop_
  _space_group_symop_operation_xyz
  'x, y, z'

loop_
  _atom_site_type_symbol
  _atom_site_label
  _atom_site_symmetry_multiplicity
  _atom_site_fract_x
  _atom_site_fract_y
  _atom_site_fract_z
  _atom_site_occupancy
  Pd  Pd1       1.0  0.50000  0.00000  0.50000  1.0000
  Pd  Pd2       1.0  0.00000  0.50000  0.50000  1.0000
  Hg  Hg1       1.0  0.46125  0.96125  0.18668  1.0000
  Hg  Hg2       1.0  0.22543  0.72543  0.18668  1.0000
  Hg  Hg3       1.0  0.53875  0.03875  0.81332  1.0000
  Hg  Hg4       1.0  0.03875  0.22543  0.50000  1.0000
  Hg  Hg5       1.0  0.77457  0.27457  0.81332  1.0000
  Hg  Hg6       1.0  0.27457  0.46125  0.50000  1.0000
  Hg  Hg7       1.0  0.96125  0.77457  0.50000  1.0000
  Hg  Hg8       1.0  0.72543  0.53875  0.50000  1.0000
