data_image0
_chemical_formula_structural       Pd4C20
_chemical_formula_sum              "Pd4 C20"
_cell_length_a       6.09539
_cell_length_b       8.69343
_cell_length_c       12.0101
_cell_angle_alpha    69.2761
_cell_angle_beta     90
_cell_angle_gamma    90

_space_group_name_H-M_alt    "P 1"
_space_group_IT_number       1

loop_
  _space_group_symop_operation_xyz
  'x, y, z'

loop_
  _atom_site_type_symbol
  _atom_site_label
  _atom_site_symmetry_multiplicity
  _atom_site_fract_x
  _atom_site_fract_y
  _atom_site_fract_z
  _atom_site_occupancy
  Pd  Pd1       1.0  0.50000  0.00000  0.50000  1.0000
  Pd  Pd2       1.0  0.00000  0.00000  0.00000  1.0000
  Pd  Pd3       1.0  0.50000  0.50000  0.50000  1.0000
  Pd  Pd4       1.0  0.00000  0.50000  0.00000  1.0000
  C   C1        1.0  0.64412  0.95912  0.66513  1.0000
  C   C2        1.0  0.21362  0.88453  0.58395  1.0000
  C   C3        1.0  0.27508  0.61880  0.90474  1.0000
  C   C4        1.0  0.85588  0.95912  0.16513  1.0000
  C   C5        1.0  0.63206  0.74913  0.50192  1.0000
  C   C6        1.0  0.83362  0.53692  0.84123  1.0000
  C   C7        1.0  0.28638  0.88453  0.08395  1.0000
  C   C8        1.0  0.22492  0.61880  0.40474  1.0000
  C   C9        1.0  0.33363  0.46308  0.65877  1.0000
  C   C10       1.0  0.86794  0.74913  0.00192  1.0000
  C   C11       1.0  0.13206  0.25087  0.99808  1.0000
  C   C12       1.0  0.66638  0.53692  0.34123  1.0000
  C   C13       1.0  0.77508  0.38120  0.59526  1.0000
  C   C14       1.0  0.71362  0.11546  0.91605  1.0000
  C   C15       1.0  0.16637  0.46308  0.15877  1.0000
  C   C16       1.0  0.36794  0.25087  0.49808  1.0000
  C   C17       1.0  0.14412  0.04088  0.83487  1.0000
  C   C18       1.0  0.72492  0.38120  0.09526  1.0000
  C   C19       1.0  0.78638  0.11546  0.41605  1.0000
  C   C20       1.0  0.35588  0.04088  0.33487  1.0000
