data_image0
_chemical_formula_structural       Pd2C8
_chemical_formula_sum              "Pd2 C8"
_cell_length_a       3.60899
_cell_length_b       5.83877
_cell_length_c       11.3422
_cell_angle_alpha    90
_cell_angle_beta     90
_cell_angle_gamma    90

_space_group_name_H-M_alt    "P 1"
_space_group_IT_number       1

loop_
  _space_group_symop_operation_xyz
  'x, y, z'

loop_
  _atom_site_type_symbol
  _atom_site_label
  _atom_site_symmetry_multiplicity
  _atom_site_fract_x
  _atom_site_fract_y
  _atom_site_fract_z
  _atom_site_occupancy
  Pd  Pd1       1.0  0.00000  0.50000  0.50000  1.0000
  Pd  Pd2       1.0  0.00000  0.00000  0.00000  1.0000
  C   C1        1.0  0.00000  0.76859  0.86118  1.0000
  C   C2        1.0  0.00000  0.26859  0.63882  1.0000
  C   C3        1.0  0.50000  0.80975  0.08318  1.0000
  C   C4        1.0  0.50000  0.69025  0.58318  1.0000
  C   C5        1.0  0.50000  0.30975  0.41682  1.0000
  C   C6        1.0  0.50000  0.19025  0.91682  1.0000
  C   C7        1.0  0.00000  0.73141  0.36118  1.0000
  C   C8        1.0  0.00000  0.23141  0.13882  1.0000
