data_image0
_chemical_formula_structural       Pd6C24
_chemical_formula_sum              "Pd6 C24"
_cell_length_a       8.33826
_cell_length_b       8.33826
_cell_length_c       8.33657
_cell_angle_alpha    63.2307
_cell_angle_beta     63.2307
_cell_angle_gamma    80.2158

_space_group_name_H-M_alt    "P 1"
_space_group_IT_number       1

loop_
  _space_group_symop_operation_xyz
  'x, y, z'

loop_
  _atom_site_type_symbol
  _atom_site_label
  _atom_site_symmetry_multiplicity
  _atom_site_fract_x
  _atom_site_fract_y
  _atom_site_fract_z
  _atom_site_occupancy
  Pd  Pd1       1.0  0.78732  0.21268  0.75000  1.0000
  Pd  Pd2       1.0  0.21268  0.78732  0.25000  1.0000
  Pd  Pd3       1.0  0.22434  0.36788  0.83020  1.0000
  Pd  Pd4       1.0  0.63212  0.77566  0.66979  1.0000
  Pd  Pd5       1.0  0.77566  0.63212  0.16980  1.0000
  Pd  Pd6       1.0  0.36788  0.22434  0.33021  1.0000
  C   C1        1.0  0.31851  0.26058  0.60256  1.0000
  C   C2        1.0  0.73942  0.68149  0.89744  1.0000
  C   C3        1.0  0.68149  0.73942  0.39744  1.0000
  C   C4        1.0  0.26058  0.31851  0.10256  1.0000
  C   C5        1.0  0.81278  0.40213  0.43167  1.0000
  C   C6        1.0  0.59787  0.18722  0.06833  1.0000
  C   C7        1.0  0.60332  0.39668  0.25000  1.0000
  C   C8        1.0  0.39668  0.60332  0.75000  1.0000
  C   C9        1.0  0.26262  0.50304  0.28039  1.0000
  C   C10       1.0  0.49696  0.73738  0.21961  1.0000
  C   C11       1.0  0.73738  0.49696  0.71961  1.0000
  C   C12       1.0  0.50304  0.26262  0.78039  1.0000
  C   C13       1.0  0.02651  0.72216  0.15542  1.0000
  C   C14       1.0  0.27784  0.97349  0.34458  1.0000
  C   C15       1.0  0.97349  0.27784  0.84458  1.0000
  C   C16       1.0  0.72216  0.02651  0.65542  1.0000
  C   C17       1.0  0.00000  0.50000  0.00000  1.0000
  C   C18       1.0  0.50000  0.00000  0.50000  1.0000
  C   C19       1.0  0.17525  0.06706  0.04258  1.0000
  C   C20       1.0  0.93294  0.82475  0.45742  1.0000
  C   C21       1.0  0.82475  0.93294  0.95742  1.0000
  C   C22       1.0  0.06706  0.17525  0.54258  1.0000
  C   C23       1.0  0.40213  0.81278  0.93167  1.0000
  C   C24       1.0  0.18722  0.59787  0.56833  1.0000
