data_image0
_chemical_formula_structural       Pd8C20
_chemical_formula_sum              "Pd8 C20"
_cell_length_a       7.48952
_cell_length_b       7.48952
_cell_length_c       6.49486
_cell_angle_alpha    72.499
_cell_angle_beta     72.499
_cell_angle_gamma    51.2085

_space_group_name_H-M_alt    "P 1"
_space_group_IT_number       1

loop_
  _space_group_symop_operation_xyz
  'x, y, z'

loop_
  _atom_site_type_symbol
  _atom_site_label
  _atom_site_symmetry_multiplicity
  _atom_site_fract_x
  _atom_site_fract_y
  _atom_site_fract_z
  _atom_site_occupancy
  Pd  Pd1       1.0  0.94372  0.81906  0.22230  1.0000
  Pd  Pd2       1.0  0.18094  0.05628  0.27770  1.0000
  Pd  Pd3       1.0  0.05628  0.18094  0.77770  1.0000
  Pd  Pd4       1.0  0.81906  0.94372  0.72230  1.0000
  Pd  Pd5       1.0  0.45180  0.31033  0.09596  1.0000
  Pd  Pd6       1.0  0.68967  0.54820  0.40404  1.0000
  Pd  Pd7       1.0  0.54820  0.68967  0.90404  1.0000
  Pd  Pd8       1.0  0.31033  0.45180  0.59596  1.0000
  C   C1        1.0  0.79702  0.28944  0.15000  1.0000
  C   C2        1.0  0.71056  0.20298  0.35000  1.0000
  C   C3        1.0  0.20298  0.71056  0.85000  1.0000
  C   C4        1.0  0.28944  0.79702  0.65000  1.0000
  C   C5        1.0  0.40827  0.09315  0.90722  1.0000
  C   C6        1.0  0.90685  0.59173  0.59278  1.0000
  C   C7        1.0  0.59173  0.90685  0.09278  1.0000
  C   C8        1.0  0.09315  0.40827  0.40722  1.0000
  C   C9        1.0  0.95909  0.53866  0.82977  1.0000
  C   C10       1.0  0.46134  0.04091  0.67023  1.0000
  C   C11       1.0  0.04091  0.46134  0.17023  1.0000
  C   C12       1.0  0.53866  0.95909  0.32977  1.0000
  C   C13       1.0  0.82873  0.67104  0.04011  1.0000
  C   C14       1.0  0.32896  0.17127  0.45989  1.0000
  C   C15       1.0  0.17127  0.32896  0.95989  1.0000
  C   C16       1.0  0.67104  0.82873  0.54011  1.0000
  C   C17       1.0  0.08933  0.59014  0.93843  1.0000
  C   C18       1.0  0.40986  0.91067  0.56157  1.0000
  C   C19       1.0  0.91067  0.40986  0.06157  1.0000
  C   C20       1.0  0.59014  0.08933  0.43843  1.0000
