data_image0
_chemical_formula_structural       Pd18Hg24
_chemical_formula_sum              "Pd18 Hg24"
_cell_length_a       8.44361
_cell_length_b       8.44361
_cell_length_c       14.6834
_cell_angle_alpha    90
_cell_angle_beta     90
_cell_angle_gamma    120

_space_group_name_H-M_alt    "P 1"
_space_group_IT_number       1

loop_
  _space_group_symop_operation_xyz
  'x, y, z'

loop_
  _atom_site_type_symbol
  _atom_site_label
  _atom_site_symmetry_multiplicity
  _atom_site_fract_x
  _atom_site_fract_y
  _atom_site_fract_z
  _atom_site_occupancy
  Pd  Pd1       1.0  0.09087  0.66517  0.60001  1.0000
  Pd  Pd2       1.0  0.33483  0.42570  0.60001  1.0000
  Pd  Pd3       1.0  0.57430  0.90913  0.60001  1.0000
  Pd  Pd4       1.0  0.90913  0.33483  0.10001  1.0000
  Pd  Pd5       1.0  0.66517  0.57430  0.10001  1.0000
  Pd  Pd6       1.0  0.42570  0.09087  0.10001  1.0000
  Pd  Pd7       1.0  0.90913  0.33483  0.39999  1.0000
  Pd  Pd8       1.0  0.66517  0.57430  0.39999  1.0000
  Pd  Pd9       1.0  0.42570  0.09087  0.39999  1.0000
  Pd  Pd10      1.0  0.09087  0.66517  0.89999  1.0000
  Pd  Pd11      1.0  0.33483  0.42570  0.89999  1.0000
  Pd  Pd12      1.0  0.57430  0.90913  0.89999  1.0000
  Pd  Pd13      1.0  0.66667  0.33333  0.75000  1.0000
  Pd  Pd14      1.0  0.33333  0.66667  0.25000  1.0000
  Pd  Pd15      1.0  0.00000  0.00000  0.50000  1.0000
  Pd  Pd16      1.0  0.00000  0.00000  0.00000  1.0000
  Pd  Pd17      1.0  0.00000  0.00000  0.75000  1.0000
  Pd  Pd18      1.0  0.00000  0.00000  0.25000  1.0000
  Hg  Hg1       1.0  0.74429  0.65546  0.60373  1.0000
  Hg  Hg2       1.0  0.34454  0.08883  0.60373  1.0000
  Hg  Hg3       1.0  0.91117  0.25571  0.60373  1.0000
  Hg  Hg4       1.0  0.25571  0.34454  0.10373  1.0000
  Hg  Hg5       1.0  0.65546  0.91117  0.10373  1.0000
  Hg  Hg6       1.0  0.08883  0.74429  0.10373  1.0000
  Hg  Hg7       1.0  0.25571  0.34454  0.39627  1.0000
  Hg  Hg8       1.0  0.65546  0.91117  0.39627  1.0000
  Hg  Hg9       1.0  0.08883  0.74429  0.39627  1.0000
  Hg  Hg10      1.0  0.74429  0.65546  0.89627  1.0000
  Hg  Hg11      1.0  0.34454  0.08883  0.89627  1.0000
  Hg  Hg12      1.0  0.91117  0.25571  0.89627  1.0000
  Hg  Hg13      1.0  0.31223  0.94373  0.75000  1.0000
  Hg  Hg14      1.0  0.05627  0.36850  0.75000  1.0000
  Hg  Hg15      1.0  0.63150  0.68777  0.75000  1.0000
  Hg  Hg16      1.0  0.68777  0.05627  0.25000  1.0000
  Hg  Hg17      1.0  0.94373  0.63150  0.25000  1.0000
  Hg  Hg18      1.0  0.36850  0.31223  0.25000  1.0000
  Hg  Hg19      1.0  0.66667  0.33333  0.55100  1.0000
  Hg  Hg20      1.0  0.33333  0.66667  0.05101  1.0000
  Hg  Hg21      1.0  0.33333  0.66667  0.44899  1.0000
  Hg  Hg22      1.0  0.66667  0.33333  0.94900  1.0000
  Hg  Hg23      1.0  0.33333  0.66667  0.75000  1.0000
  Hg  Hg24      1.0  0.66667  0.33333  0.25000  1.0000
