data_image0
_chemical_formula_structural       Pd6C22
_chemical_formula_sum              "Pd6 C22"
_cell_length_a       3.6517
_cell_length_b       3.6517
_cell_length_c       26.1692
_cell_angle_alpha    85.1734
_cell_angle_beta     85.1734
_cell_angle_gamma    34.2022

_space_group_name_H-M_alt    "P 1"
_space_group_IT_number       1

loop_
  _space_group_symop_operation_xyz
  'x, y, z'

loop_
  _atom_site_type_symbol
  _atom_site_label
  _atom_site_symmetry_multiplicity
  _atom_site_fract_x
  _atom_site_fract_y
  _atom_site_fract_z
  _atom_site_occupancy
  Pd  Pd1       1.0  0.44752  0.44752  0.14455  1.0000
  Pd  Pd2       1.0  0.09733  0.09733  0.30712  1.0000
  Pd  Pd3       1.0  0.65438  0.65438  0.44958  1.0000
  Pd  Pd4       1.0  0.34562  0.34562  0.55042  1.0000
  Pd  Pd5       1.0  0.90267  0.90267  0.69288  1.0000
  Pd  Pd6       1.0  0.55248  0.55248  0.85545  1.0000
  C   C1        1.0  0.86261  0.86261  0.97105  1.0000
  C   C2        1.0  0.49842  0.49842  0.02741  1.0000
  C   C3        1.0  0.13739  0.13739  0.02896  1.0000
  C   C4        1.0  0.14488  0.14488  0.08360  1.0000
  C   C5        1.0  0.09009  0.09009  0.20800  1.0000
  C   C6        1.0  0.76991  0.76991  0.08996  1.0000
  C   C7        1.0  0.72451  0.72451  0.20368  1.0000
  C   C8        1.0  0.79819  0.79819  0.25342  1.0000
  C   C9        1.0  0.43186  0.43186  0.25144  1.0000
  C   C10       1.0  0.37519  0.37519  0.36424  1.0000
  C   C11       1.0  0.39594  0.39594  0.41744  1.0000
  C   C12       1.0  0.98928  0.98928  0.38560  1.0000
  C   C13       1.0  0.01072  0.01072  0.61440  1.0000
  C   C14       1.0  0.60406  0.60406  0.58256  1.0000
  C   C15       1.0  0.62481  0.62481  0.63576  1.0000
  C   C16       1.0  0.56814  0.56814  0.74856  1.0000
  C   C17       1.0  0.20181  0.20181  0.74658  1.0000
  C   C18       1.0  0.27549  0.27549  0.79632  1.0000
  C   C19       1.0  0.23009  0.23009  0.91004  1.0000
  C   C20       1.0  0.90991  0.90991  0.79200  1.0000
  C   C21       1.0  0.85512  0.85512  0.91640  1.0000
  C   C22       1.0  0.50158  0.50158  0.97259  1.0000
