data_image0
_chemical_formula_structural       Pd6Hg12
_chemical_formula_sum              "Pd6 Hg12"
_cell_length_a       12.2708
_cell_length_b       12.2708
_cell_length_c       14.7257
_cell_angle_alpha    53.9821
_cell_angle_beta     53.9821
_cell_angle_gamma    39.0869

_space_group_name_H-M_alt    "P 1"
_space_group_IT_number       1

loop_
  _space_group_symop_operation_xyz
  'x, y, z'

loop_
  _atom_site_type_symbol
  _atom_site_label
  _atom_site_symmetry_multiplicity
  _atom_site_fract_x
  _atom_site_fract_y
  _atom_site_fract_z
  _atom_site_occupancy
  Pd  Pd1       1.0  0.01210  0.98790  0.25000  1.0000
  Pd  Pd2       1.0  0.98790  0.01210  0.75000  1.0000
  Pd  Pd3       1.0  0.57873  0.08605  0.65720  1.0000
  Pd  Pd4       1.0  0.91395  0.42127  0.84280  1.0000
  Pd  Pd5       1.0  0.42127  0.91395  0.34280  1.0000
  Pd  Pd6       1.0  0.08605  0.57873  0.15720  1.0000
  Hg  Hg1       1.0  0.64804  0.78071  0.81626  1.0000
  Hg  Hg2       1.0  0.21929  0.35196  0.68374  1.0000
  Hg  Hg3       1.0  0.35196  0.21929  0.18374  1.0000
  Hg  Hg4       1.0  0.78071  0.64804  0.31626  1.0000
  Hg  Hg5       1.0  0.71956  0.07134  0.43401  1.0000
  Hg  Hg6       1.0  0.92866  0.28044  0.06599  1.0000
  Hg  Hg7       1.0  0.28044  0.92866  0.56598  1.0000
  Hg  Hg8       1.0  0.07134  0.71956  0.93402  1.0000
  Hg  Hg9       1.0  0.71335  0.13864  0.70769  1.0000
  Hg  Hg10      1.0  0.86136  0.28665  0.79231  1.0000
  Hg  Hg11      1.0  0.28665  0.86136  0.29231  1.0000
  Hg  Hg12      1.0  0.13864  0.71335  0.20769  1.0000
