data_image0
_chemical_formula_structural       Pd4C20
_chemical_formula_sum              "Pd4 C20"
_cell_length_a       4.69129
_cell_length_b       5.22534
_cell_length_c       8.91753
_cell_angle_alpha    90
_cell_angle_beta     90
_cell_angle_gamma    90

_space_group_name_H-M_alt    "P 1"
_space_group_IT_number       1

loop_
  _space_group_symop_operation_xyz
  'x, y, z'

loop_
  _atom_site_type_symbol
  _atom_site_label
  _atom_site_symmetry_multiplicity
  _atom_site_fract_x
  _atom_site_fract_y
  _atom_site_fract_z
  _atom_site_occupancy
  Pd  Pd1       1.0  0.50000  0.03144  0.33986  1.0000
  Pd  Pd2       1.0  0.50000  0.96856  0.83986  1.0000
  Pd  Pd3       1.0  0.00000  0.77520  0.50113  1.0000
  Pd  Pd4       1.0  0.00000  0.22480  0.00113  1.0000
  C   C1        1.0  0.50000  0.35741  0.04194  1.0000
  C   C2        1.0  0.50000  0.64259  0.54194  1.0000
  C   C3        1.0  0.50000  0.39014  0.21479  1.0000
  C   C4        1.0  0.50000  0.60986  0.71479  1.0000
  C   C5        1.0  0.24927  0.22854  0.61041  1.0000
  C   C6        1.0  0.75073  0.77146  0.11041  1.0000
  C   C7        1.0  0.75073  0.22854  0.61041  1.0000
  C   C8        1.0  0.24927  0.77146  0.11041  1.0000
  C   C9        1.0  0.25409  0.41128  0.75957  1.0000
  C   C10       1.0  0.74591  0.58872  0.25957  1.0000
  C   C11       1.0  0.74591  0.41128  0.75957  1.0000
  C   C12       1.0  0.25409  0.58872  0.25957  1.0000
  C   C13       1.0  0.00000  0.61269  0.73039  1.0000
  C   C14       1.0  0.00000  0.38731  0.23039  1.0000
  C   C15       1.0  0.00000  0.81234  0.86245  1.0000
  C   C16       1.0  0.00000  0.18766  0.36245  1.0000
  C   C17       1.0  0.00000  0.64299  0.00985  1.0000
  C   C18       1.0  0.00000  0.35701  0.50985  1.0000
  C   C19       1.0  0.50000  0.34764  0.51134  1.0000
  C   C20       1.0  0.50000  0.65236  0.01134  1.0000
