data_image0
_chemical_formula_structural       Pd12C28
_chemical_formula_sum              "Pd12 C28"
_cell_length_a       11.1442
_cell_length_b       11.1442
_cell_length_c       13.4713
_cell_angle_alpha    74.3247
_cell_angle_beta     74.3247
_cell_angle_gamma    59.9656

_space_group_name_H-M_alt    "P 1"
_space_group_IT_number       1

loop_
  _space_group_symop_operation_xyz
  'x, y, z'

loop_
  _atom_site_type_symbol
  _atom_site_label
  _atom_site_symmetry_multiplicity
  _atom_site_fract_x
  _atom_site_fract_y
  _atom_site_fract_z
  _atom_site_occupancy
  Pd  Pd1       1.0  0.76770  0.44533  0.23240  1.0000
  Pd  Pd2       1.0  0.44533  0.76770  0.73240  1.0000
  Pd  Pd3       1.0  0.50314  0.43217  0.23572  1.0000
  Pd  Pd4       1.0  0.43217  0.50315  0.73572  1.0000
  Pd  Pd5       1.0  0.19213  0.58136  0.25591  1.0000
  Pd  Pd6       1.0  0.58136  0.19213  0.75591  1.0000
  Pd  Pd7       1.0  0.78178  0.16943  0.23247  1.0000
  Pd  Pd8       1.0  0.16943  0.78178  0.73247  1.0000
  Pd  Pd9       1.0  0.92570  0.85974  0.25560  1.0000
  Pd  Pd10      1.0  0.85974  0.92570  0.75560  1.0000
  Pd  Pd11      1.0  0.91334  0.59305  0.25693  1.0000
  Pd  Pd12      1.0  0.59305  0.91334  0.75692  1.0000
  C   C1        1.0  0.66110  0.32616  0.34095  1.0000
  C   C2        1.0  0.32616  0.66110  0.84095  1.0000
  C   C3        1.0  0.10503  0.76112  0.32295  1.0000
  C   C4        1.0  0.76112  0.10503  0.82295  1.0000
  C   C5        1.0  0.78043  0.78413  0.30809  1.0000
  C   C6        1.0  0.78413  0.78043  0.80809  1.0000
  C   C7        1.0  0.09926  0.45077  0.31270  1.0000
  C   C8        1.0  0.45077  0.09926  0.81270  1.0000
  C   C9        1.0  0.90780  0.26622  0.16836  1.0000
  C   C10       1.0  0.26622  0.90780  0.66836  1.0000
  C   C11       1.0  0.34232  0.48172  0.36044  1.0000
  C   C12       1.0  0.48172  0.34232  0.86044  1.0000
  C   C13       1.0  0.80816  0.47974  0.36045  1.0000
  C   C14       1.0  0.47974  0.80816  0.86045  1.0000
  C   C15       1.0  0.59502  0.24309  0.18069  1.0000
  C   C16       1.0  0.24309  0.59502  0.68069  1.0000
  C   C17       1.0  0.03512  0.70145  0.14909  1.0000
  C   C18       1.0  0.70144  0.03512  0.64909  1.0000
  C   C19       1.0  0.58835  0.56624  0.16341  1.0000
  C   C20       1.0  0.56624  0.58835  0.66341  1.0000
  C   C21       1.0  0.81204  0.01136  0.35986  1.0000
  C   C22       1.0  0.01136  0.81204  0.85986  1.0000
  C   C23       1.0  0.90511  0.01685  0.12913  1.0000
  C   C24       1.0  0.01685  0.90511  0.62913  1.0000
  C   C25       1.0  0.86039  0.57204  0.13070  1.0000
  C   C26       1.0  0.57204  0.86039  0.63070  1.0000
  C   C27       1.0  0.35166  0.52065  0.13165  1.0000
  C   C28       1.0  0.52065  0.35166  0.63165  1.0000
