data_image0
_chemical_formula_structural       PdC28
_chemical_formula_sum              "Pd1 C28"
_cell_length_a       4.43162
_cell_length_b       4.43162
_cell_length_c       4.43162
_cell_angle_alpha    109.471
_cell_angle_beta     109.471
_cell_angle_gamma    109.471

_space_group_name_H-M_alt    "P 1"
_space_group_IT_number       1

loop_
  _space_group_symop_operation_xyz
  'x, y, z'

loop_
  _atom_site_type_symbol
  _atom_site_label
  _atom_site_symmetry_multiplicity
  _atom_site_fract_x
  _atom_site_fract_y
  _atom_site_fract_z
  _atom_site_occupancy
  Pd  Pd1       1.0  0.00000  0.00000  0.00000  1.0000
  C   C1        1.0  0.62602  0.00000  0.00000  1.0000
  C   C2        1.0  0.00000  0.62602  0.00000  1.0000
  C   C3        1.0  0.00000  0.00000  0.62602  1.0000
  C   C4        1.0  0.37398  0.37398  0.37398  1.0000
  C   C5        1.0  0.39270  0.67825  0.00000  1.0000
  C   C6        1.0  0.71445  0.32175  0.32175  1.0000
  C   C7        1.0  0.39270  0.00000  0.67825  1.0000
  C   C8        1.0  0.67825  0.39270  0.00000  1.0000
  C   C9        1.0  0.00000  0.39270  0.67825  1.0000
  C   C10       1.0  0.32175  0.71445  0.32175  1.0000
  C   C11       1.0  0.32175  0.32175  0.71445  1.0000
  C   C12       1.0  0.00000  0.67825  0.39270  1.0000
  C   C13       1.0  0.67825  0.00000  0.39270  1.0000
  C   C14       1.0  0.60730  0.60730  0.28555  1.0000
  C   C15       1.0  0.28555  0.60730  0.60730  1.0000
  C   C16       1.0  0.60730  0.28555  0.60730  1.0000
  C   C17       1.0  0.37741  0.19863  0.00000  1.0000
  C   C18       1.0  0.17878  0.80137  0.80137  1.0000
  C   C19       1.0  0.37741  0.00000  0.19863  1.0000
  C   C20       1.0  0.19863  0.37742  0.00000  1.0000
  C   C21       1.0  0.00000  0.37742  0.19863  1.0000
  C   C22       1.0  0.80137  0.17878  0.80137  1.0000
  C   C23       1.0  0.80137  0.80137  0.17878  1.0000
  C   C24       1.0  0.00000  0.19863  0.37742  1.0000
  C   C25       1.0  0.19863  0.00000  0.37742  1.0000
  C   C26       1.0  0.62259  0.62259  0.82122  1.0000
  C   C27       1.0  0.82122  0.62259  0.62259  1.0000
  C   C28       1.0  0.62258  0.82122  0.62259  1.0000
