data_image0
_chemical_formula_structural       Pd2C10
_chemical_formula_sum              "Pd2 C10"
_cell_length_a       6.33482
_cell_length_b       6.33482
_cell_length_c       9.76823
_cell_angle_alpha    66.1838
_cell_angle_beta     66.1838
_cell_angle_gamma    70.7157

_space_group_name_H-M_alt    "P 1"
_space_group_IT_number       1

loop_
  _space_group_symop_operation_xyz
  'x, y, z'

loop_
  _atom_site_type_symbol
  _atom_site_label
  _atom_site_symmetry_multiplicity
  _atom_site_fract_x
  _atom_site_fract_y
  _atom_site_fract_z
  _atom_site_occupancy
  Pd  Pd1       1.0  0.01122  0.98470  0.03661  1.0000
  Pd  Pd2       1.0  0.98470  0.01122  0.53661  1.0000
  C   C1        1.0  0.24000  0.71420  0.94840  1.0000
  C   C2        1.0  0.24666  0.20192  0.87133  1.0000
  C   C3        1.0  0.79860  0.74711  0.61462  1.0000
  C   C4        1.0  0.91156  0.08558  0.74108  1.0000
  C   C5        1.0  0.71420  0.24000  0.44840  1.0000
  C   C6        1.0  0.28828  0.74990  0.53202  1.0000
  C   C7        1.0  0.08558  0.91156  0.24108  1.0000
  C   C8        1.0  0.20192  0.24666  0.37134  1.0000
  C   C9        1.0  0.74711  0.79860  0.11462  1.0000
  C   C10       1.0  0.74990  0.28828  0.03203  1.0000
