data_image0
_chemical_formula_structural       Pd2C16
_chemical_formula_sum              "Pd2 C16"
_cell_length_a       9.163
_cell_length_b       8.77807
_cell_length_c       3.71492
_cell_angle_alpha    83.9317
_cell_angle_beta     72.2928
_cell_angle_gamma    23.7755

_space_group_name_H-M_alt    "P 1"
_space_group_IT_number       1

loop_
  _space_group_symop_operation_xyz
  'x, y, z'

loop_
  _atom_site_type_symbol
  _atom_site_label
  _atom_site_symmetry_multiplicity
  _atom_site_fract_x
  _atom_site_fract_y
  _atom_site_fract_z
  _atom_site_occupancy
  Pd  Pd1       1.0  0.50000  0.50000  0.50000  1.0000
  Pd  Pd2       1.0  0.75000  0.75000  0.75000  1.0000
  C   C1        1.0  0.79166  0.45831  0.54147  1.0000
  C   C2        1.0  0.54147  0.20856  0.79166  1.0000
  C   C3        1.0  0.45830  0.79166  0.20856  1.0000
  C   C4        1.0  0.79169  0.45834  0.04144  1.0000
  C   C5        1.0  0.95716  0.29070  0.70958  1.0000
  C   C6        1.0  0.04256  0.70958  0.29070  1.0000
  C   C7        1.0  0.70853  0.04144  0.45834  1.0000
  C   C8        1.0  0.29284  0.95930  0.54042  1.0000
  C   C9        1.0  0.95930  0.29284  0.20744  1.0000
  C   C10       1.0  0.20744  0.54042  0.95930  1.0000
  C   C11       1.0  0.04144  0.70853  0.79170  1.0000
  C   C12       1.0  0.45834  0.79169  0.70853  1.0000
  C   C13       1.0  0.20856  0.54147  0.45830  1.0000
  C   C14       1.0  0.29070  0.95716  0.04256  1.0000
  C   C15       1.0  0.54042  0.20744  0.29284  1.0000
  C   C16       1.0  0.70958  0.04256  0.95716  1.0000
