data_image0
_chemical_formula_structural       Pd8C12
_chemical_formula_sum              "Pd8 C12"
_cell_length_a       6.23746
_cell_length_b       6.23746
_cell_length_c       6.23746
_cell_angle_alpha    109.471
_cell_angle_beta     109.471
_cell_angle_gamma    109.471

_space_group_name_H-M_alt    "P 1"
_space_group_IT_number       1

loop_
  _space_group_symop_operation_xyz
  'x, y, z'

loop_
  _atom_site_type_symbol
  _atom_site_label
  _atom_site_symmetry_multiplicity
  _atom_site_fract_x
  _atom_site_fract_y
  _atom_site_fract_z
  _atom_site_occupancy
  Pd  Pd1       1.0  0.61311  0.61311  0.61311  1.0000
  Pd  Pd2       1.0  0.50000  0.00000  0.38690  1.0000
  Pd  Pd3       1.0  0.00000  0.38689  0.50000  1.0000
  Pd  Pd4       1.0  0.38689  0.50000  0.00000  1.0000
  Pd  Pd5       1.0  0.00000  0.88690  0.50000  1.0000
  Pd  Pd6       1.0  0.88690  0.50000  0.00000  1.0000
  Pd  Pd7       1.0  0.50000  0.00000  0.88690  1.0000
  Pd  Pd8       1.0  0.11311  0.11311  0.11311  1.0000
  C   C1        1.0  0.79757  0.04757  0.75000  1.0000
  C   C2        1.0  0.95243  0.20243  0.75000  1.0000
  C   C3        1.0  0.25000  0.54757  0.29757  1.0000
  C   C4        1.0  0.29757  0.25000  0.54757  1.0000
  C   C5        1.0  0.75000  0.95243  0.20243  1.0000
  C   C6        1.0  0.20243  0.75000  0.95243  1.0000
  C   C7        1.0  0.70243  0.45243  0.25000  1.0000
  C   C8        1.0  0.45243  0.25000  0.70243  1.0000
  C   C9        1.0  0.54757  0.29757  0.25000  1.0000
  C   C10       1.0  0.25000  0.70243  0.45243  1.0000
  C   C11       1.0  0.75000  0.79757  0.04757  1.0000
  C   C12       1.0  0.04757  0.75000  0.79757  1.0000
