data_image0
_chemical_formula_structural       Pd2C17
_chemical_formula_sum              "Pd2 C17"
_cell_length_a       3.92124
_cell_length_b       3.92124
_cell_length_c       3.92124
_cell_angle_alpha    82.5209
_cell_angle_beta     82.5209
_cell_angle_gamma    82.5209

_space_group_name_H-M_alt    "P 1"
_space_group_IT_number       1

loop_
  _space_group_symop_operation_xyz
  'x, y, z'

loop_
  _atom_site_type_symbol
  _atom_site_label
  _atom_site_symmetry_multiplicity
  _atom_site_fract_x
  _atom_site_fract_y
  _atom_site_fract_z
  _atom_site_occupancy
  Pd  Pd1       1.0  0.65866  0.65866  0.65866  1.0000
  Pd  Pd2       1.0  0.34134  0.34134  0.34134  1.0000
  C   C1        1.0  0.00000  0.00000  0.50000  1.0000
  C   C2        1.0  0.50000  0.00000  0.00000  1.0000
  C   C3        1.0  0.00000  0.50000  0.00000  1.0000
  C   C4        1.0  0.70988  0.29012  0.00000  1.0000
  C   C5        1.0  0.00000  0.70988  0.29012  1.0000
  C   C6        1.0  0.29012  0.00000  0.70988  1.0000
  C   C7        1.0  0.00000  0.29012  0.70988  1.0000
  C   C8        1.0  0.70988  1.00000  0.29012  1.0000
  C   C9        1.0  0.29012  0.70988  0.00000  1.0000
  C   C10       1.0  0.34171  0.34171  0.84366  1.0000
  C   C11       1.0  0.84366  0.34171  0.34171  1.0000
  C   C12       1.0  0.34171  0.84366  0.34171  1.0000
  C   C13       1.0  0.65829  0.65829  0.15634  1.0000
  C   C14       1.0  0.15634  0.65829  0.65829  1.0000
  C   C15       1.0  0.65829  0.15634  0.65829  1.0000
  C   C16       1.0  0.90444  0.90444  0.90444  1.0000
  C   C17       1.0  0.09556  0.09556  0.09556  1.0000
