data_image0
_chemical_formula_structural       C4Pd4
_chemical_formula_sum              "C4 Pd4"
_cell_length_a       6.13272
_cell_length_b       6.13272
_cell_length_c       21.8874
_cell_angle_alpha    90
_cell_angle_beta     90
_cell_angle_gamma    110.913

_space_group_name_H-M_alt    "P 1"
_space_group_IT_number       1

loop_
  _space_group_symop_operation_xyz
  'x, y, z'

loop_
  _atom_site_type_symbol
  _atom_site_label
  _atom_site_symmetry_multiplicity
  _atom_site_fract_x
  _atom_site_fract_y
  _atom_site_fract_z
  _atom_site_occupancy
  C   C1        1.0  0.73381  0.01031  0.75000  1.0000
  C   C2        1.0  0.26619  0.98969  0.25000  1.0000
  C   C3        1.0  0.98969  0.26619  0.25000  1.0000
  C   C4        1.0  0.01031  0.73381  0.75000  1.0000
  Pd  Pd1       1.0  0.83035  0.37242  0.75000  1.0000
  Pd  Pd2       1.0  0.16965  0.62758  0.25000  1.0000
  Pd  Pd3       1.0  0.62758  0.16966  0.25000  1.0000
  Pd  Pd4       1.0  0.37242  0.83035  0.75000  1.0000
