data_image0
_chemical_formula_structural       Pd4Hg8
_chemical_formula_sum              "Pd4 Hg8"
_cell_length_a       14.7149
_cell_length_b       12.9888
_cell_length_c       8.91761
_cell_angle_alpha    82.134
_cell_angle_beta     60.973
_cell_angle_gamma    36.893

_space_group_name_H-M_alt    "P 1"
_space_group_IT_number       1

loop_
  _space_group_symop_operation_xyz
  'x, y, z'

loop_
  _atom_site_type_symbol
  _atom_site_label
  _atom_site_symmetry_multiplicity
  _atom_site_fract_x
  _atom_site_fract_y
  _atom_site_fract_z
  _atom_site_occupancy
  Pd  Pd1       1.0  0.93707  0.93707  0.56293  1.0000
  Pd  Pd2       1.0  0.56293  0.56293  0.93707  1.0000
  Pd  Pd3       1.0  0.31293  0.31293  0.68707  1.0000
  Pd  Pd4       1.0  0.68707  0.68707  0.31293  1.0000
  Hg  Hg1       1.0  0.43793  0.06207  0.43794  1.0000
  Hg  Hg2       1.0  0.81206  0.18794  0.81207  1.0000
  Hg  Hg3       1.0  0.06207  0.43793  0.06207  1.0000
  Hg  Hg4       1.0  0.18793  0.81207  0.18794  1.0000
  Hg  Hg5       1.0  0.12500  0.62500  0.62500  1.0000
  Hg  Hg6       1.0  0.62500  0.62500  0.12500  1.0000
  Hg  Hg7       1.0  0.62500  0.62500  0.62500  1.0000
  Hg  Hg8       1.0  0.62500  0.12500  0.62500  1.0000
