data_image0
_chemical_formula_structural       PdHg5
_chemical_formula_sum              "Pd1 Hg5"
_cell_length_a       6.21622
_cell_length_b       6.21622
_cell_length_c       6.21622
_cell_angle_alpha    142.371
_cell_angle_beta     117.757
_cell_angle_gamma    75.0657

_space_group_name_H-M_alt    "P 1"
_space_group_IT_number       1

loop_
  _space_group_symop_operation_xyz
  'x, y, z'

loop_
  _atom_site_type_symbol
  _atom_site_label
  _atom_site_symmetry_multiplicity
  _atom_site_fract_x
  _atom_site_fract_y
  _atom_site_fract_z
  _atom_site_occupancy
  Pd  Pd1       1.0  0.00000  0.00000  0.00000  1.0000
  Hg  Hg1       1.0  0.47313  0.67112  0.80201  1.0000
  Hg  Hg2       1.0  0.52687  0.32888  0.19799  1.0000
  Hg  Hg3       1.0  0.13090  0.32888  0.80201  1.0000
  Hg  Hg4       1.0  0.86910  0.67112  0.19799  1.0000
  Hg  Hg5       1.0  0.50000  0.00000  0.50000  1.0000
