data_image0
_chemical_formula_structural       Pd3C29
_chemical_formula_sum              "Pd3 C29"
_cell_length_a       3.87659
_cell_length_b       3.87659
_cell_length_c       6.28807
_cell_angle_alpha    85.3989
_cell_angle_beta     85.3989
_cell_angle_gamma    82.9423

_space_group_name_H-M_alt    "P 1"
_space_group_IT_number       1

loop_
  _space_group_symop_operation_xyz
  'x, y, z'

loop_
  _atom_site_type_symbol
  _atom_site_label
  _atom_site_symmetry_multiplicity
  _atom_site_fract_x
  _atom_site_fract_y
  _atom_site_fract_z
  _atom_site_occupancy
  Pd  Pd1       1.0  0.81336  0.81336  0.59926  1.0000
  Pd  Pd2       1.0  0.18664  0.18664  0.40074  1.0000
  Pd  Pd3       1.0  0.00000  0.00000  0.00000  1.0000
  C   C1        1.0  0.50000  0.00000  0.00000  1.0000
  C   C2        1.0  0.00000  0.50000  0.00000  1.0000
  C   C3        1.0  0.81110  0.31616  0.59625  1.0000
  C   C4        1.0  0.50000  0.50000  0.50000  1.0000
  C   C5        1.0  0.29184  0.29184  0.85996  1.0000
  C   C6        1.0  0.70816  0.70816  0.14004  1.0000
  C   C7        1.0  0.52098  0.52098  0.74718  1.0000
  C   C8        1.0  0.47902  0.47902  0.25282  1.0000
  C   C9        1.0  0.31627  0.86571  0.19609  1.0000
  C   C10       1.0  0.13429  0.68373  0.80391  1.0000
  C   C11       1.0  0.68373  0.13429  0.80391  1.0000
  C   C12       1.0  0.86571  0.31627  0.19609  1.0000
  C   C13       1.0  0.53974  0.83045  0.37509  1.0000
  C   C14       1.0  0.16955  0.46025  0.62491  1.0000
  C   C15       1.0  0.46026  0.16955  0.62491  1.0000
  C   C16       1.0  0.83045  0.53975  0.37509  1.0000
  C   C17       1.0  0.63993  0.36007  0.00000  1.0000
  C   C18       1.0  0.36007  0.63993  0.00000  1.0000
  C   C19       1.0  0.28021  0.28021  0.10626  1.0000
  C   C20       1.0  0.71979  0.71979  0.89374  1.0000
  C   C21       1.0  0.09712  0.59112  0.19765  1.0000
  C   C22       1.0  0.40888  0.90288  0.80235  1.0000
  C   C23       1.0  0.90288  0.40888  0.80235  1.0000
  C   C24       1.0  0.59112  0.09712  0.19765  1.0000
  C   C25       1.0  0.90447  0.90447  0.29096  1.0000
  C   C26       1.0  0.09553  0.09553  0.70904  1.0000
  C   C27       1.0  0.31616  0.81109  0.59625  1.0000
  C   C28       1.0  0.18890  0.68383  0.40375  1.0000
  C   C29       1.0  0.68383  0.18890  0.40375  1.0000
