data_image0
_chemical_formula_structural       Pd4C18
_chemical_formula_sum              "Pd4 C18"
_cell_length_a       6.11294
_cell_length_b       6.11294
_cell_length_c       16.9983
_cell_angle_alpha    90
_cell_angle_beta     90
_cell_angle_gamma    120

_space_group_name_H-M_alt    "P 1"
_space_group_IT_number       1

loop_
  _space_group_symop_operation_xyz
  'x, y, z'

loop_
  _atom_site_type_symbol
  _atom_site_label
  _atom_site_symmetry_multiplicity
  _atom_site_fract_x
  _atom_site_fract_y
  _atom_site_fract_z
  _atom_site_occupancy
  Pd  Pd1       1.0  0.00000  0.00000  0.35094  1.0000
  Pd  Pd2       1.0  0.00000  0.00000  0.14906  1.0000
  Pd  Pd3       1.0  0.00000  0.00000  0.64906  1.0000
  Pd  Pd4       1.0  0.00000  0.00000  0.85094  1.0000
  C   C1        1.0  0.00000  0.70268  0.59316  1.0000
  C   C2        1.0  0.29732  0.00000  0.09316  1.0000
  C   C3        1.0  0.00000  0.29732  0.09316  1.0000
  C   C4        1.0  0.29732  0.29732  0.59316  1.0000
  C   C5        1.0  0.26415  0.26415  0.25000  1.0000
  C   C6        1.0  0.70268  0.00000  0.59316  1.0000
  C   C7        1.0  0.29732  0.29732  0.90684  1.0000
  C   C8        1.0  0.70268  0.70268  0.09316  1.0000
  C   C9        1.0  0.26415  0.00000  0.75000  1.0000
  C   C10       1.0  0.29732  0.00000  0.40684  1.0000
  C   C11       1.0  0.73585  0.73585  0.75000  1.0000
  C   C12       1.0  0.70268  0.70268  0.40684  1.0000
  C   C13       1.0  0.00000  0.70268  0.90684  1.0000
  C   C14       1.0  1.00000  0.73585  0.25000  1.0000
  C   C15       1.0  0.70268  0.00000  0.90684  1.0000
  C   C16       1.0  0.73585  0.00000  0.25000  1.0000
  C   C17       1.0  0.00000  0.29732  0.40684  1.0000
  C   C18       1.0  0.00000  0.26415  0.75000  1.0000
