data_image0
_chemical_formula_structural       Pd3C20
_chemical_formula_sum              "Pd3 C20"
_cell_length_a       7.8104
_cell_length_b       7.8104
_cell_length_c       3.31625
_cell_angle_alpha    90
_cell_angle_beta     90
_cell_angle_gamma    146.148

_space_group_name_H-M_alt    "P 1"
_space_group_IT_number       1

loop_
  _space_group_symop_operation_xyz
  'x, y, z'

loop_
  _atom_site_type_symbol
  _atom_site_label
  _atom_site_symmetry_multiplicity
  _atom_site_fract_x
  _atom_site_fract_y
  _atom_site_fract_z
  _atom_site_occupancy
  Pd  Pd1       1.0  0.36448  0.63552  0.00000  1.0000
  Pd  Pd2       1.0  0.63552  0.36448  0.00000  1.0000
  Pd  Pd3       1.0  0.00000  0.00000  0.00000  1.0000
  C   C1        1.0  0.74403  0.25597  0.50000  1.0000
  C   C2        1.0  0.25597  0.74403  0.50000  1.0000
  C   C3        1.0  0.43132  0.02641  0.50000  1.0000
  C   C4        1.0  0.17402  0.82598  0.20807  1.0000
  C   C5        1.0  0.82598  0.17402  0.20807  1.0000
  C   C6        1.0  0.82598  0.17402  0.79193  1.0000
  C   C7        1.0  0.17402  0.82598  0.79193  1.0000
  C   C8        1.0  0.50000  0.50000  0.20165  1.0000
  C   C9        1.0  0.50000  0.50000  0.79835  1.0000
  C   C10       1.0  0.70233  0.60809  0.50000  1.0000
  C   C11       1.0  0.29767  0.39191  0.50000  1.0000
  C   C12       1.0  0.60809  0.70233  0.50000  1.0000
  C   C13       1.0  0.39191  0.29767  0.50000  1.0000
  C   C14       1.0  0.96529  0.73464  0.50000  1.0000
  C   C15       1.0  0.03470  0.26536  0.50000  1.0000
  C   C16       1.0  0.73464  0.96529  0.50000  1.0000
  C   C17       1.0  0.26536  0.03471  0.50000  1.0000
  C   C18       1.0  0.97359  0.56868  0.50000  1.0000
  C   C19       1.0  0.02641  0.43132  0.50000  1.0000
  C   C20       1.0  0.56868  0.97359  0.50000  1.0000
