data_image0
_chemical_formula_structural       Pd12C16
_chemical_formula_sum              "Pd12 C16"
_cell_length_a       6.96295
_cell_length_b       6.96295
_cell_length_c       11.9695
_cell_angle_alpha    73.5934
_cell_angle_beta     73.5934
_cell_angle_gamma    60.4773

_space_group_name_H-M_alt    "P 1"
_space_group_IT_number       1

loop_
  _space_group_symop_operation_xyz
  'x, y, z'

loop_
  _atom_site_type_symbol
  _atom_site_label
  _atom_site_symmetry_multiplicity
  _atom_site_fract_x
  _atom_site_fract_y
  _atom_site_fract_z
  _atom_site_occupancy
  Pd  Pd1       1.0  0.74268  0.26061  0.74582  1.0000
  Pd  Pd2       1.0  0.26061  0.74268  0.74582  1.0000
  Pd  Pd3       1.0  0.00000  0.00000  0.50000  1.0000
  Pd  Pd4       1.0  0.25495  0.25495  0.74559  1.0000
  Pd  Pd5       1.0  0.00000  0.50000  0.50000  1.0000
  Pd  Pd6       1.0  0.73939  0.25732  0.25418  1.0000
  Pd  Pd7       1.0  0.50000  0.00000  0.50000  1.0000
  Pd  Pd8       1.0  0.25732  0.73939  0.25418  1.0000
  Pd  Pd9       1.0  0.00000  0.00000  0.00000  1.0000
  Pd  Pd10      1.0  0.74505  0.74505  0.25441  1.0000
  Pd  Pd11      1.0  0.50000  0.00000  0.00000  1.0000
  Pd  Pd12      1.0  0.00000  0.50000  0.00000  1.0000
  C   C1        1.0  0.12274  0.62760  0.62553  1.0000
  C   C2        1.0  0.62760  0.12274  0.62553  1.0000
  C   C3        1.0  0.37247  0.37247  0.37552  1.0000
  C   C4        1.0  0.87545  0.87545  0.37434  1.0000
  C   C5        1.0  0.63011  0.11753  0.12549  1.0000
  C   C6        1.0  0.12455  0.12455  0.62565  1.0000
  C   C7        1.0  0.37240  0.87726  0.37447  1.0000
  C   C8        1.0  0.87485  0.87485  0.87224  1.0000
  C   C9        1.0  0.11753  0.63011  0.12549  1.0000
  C   C10       1.0  0.62753  0.62753  0.62448  1.0000
  C   C11       1.0  0.37714  0.37714  0.87765  1.0000
  C   C12       1.0  0.87726  0.37240  0.37447  1.0000
  C   C13       1.0  0.62286  0.62286  0.12235  1.0000
  C   C14       1.0  0.88247  0.36989  0.87451  1.0000
  C   C15       1.0  0.12515  0.12515  0.12776  1.0000
  C   C16       1.0  0.36989  0.88247  0.87451  1.0000
