data_image0
_chemical_formula_structural       Pd4C20
_chemical_formula_sum              "Pd4 C20"
_cell_length_a       11.7355
_cell_length_b       6.57349
_cell_length_c       8.64705
_cell_angle_alpha    89.9726
_cell_angle_beta     90
_cell_angle_gamma    90

_space_group_name_H-M_alt    "P 1"
_space_group_IT_number       1

loop_
  _space_group_symop_operation_xyz
  'x, y, z'

loop_
  _atom_site_type_symbol
  _atom_site_label
  _atom_site_symmetry_multiplicity
  _atom_site_fract_x
  _atom_site_fract_y
  _atom_site_fract_z
  _atom_site_occupancy
  Pd  Pd1       1.0  0.39006  0.98368  0.57707  1.0000
  Pd  Pd2       1.0  0.78033  0.51577  0.11377  1.0000
  Pd  Pd3       1.0  0.28033  0.48423  0.88623  1.0000
  Pd  Pd4       1.0  0.89006  0.01632  0.42293  1.0000
  C   C1        1.0  0.26335  0.98756  0.40922  1.0000
  C   C2        1.0  0.46958  0.97383  0.79252  1.0000
  C   C3        1.0  0.76854  0.77829  0.29932  1.0000
  C   C4        1.0  0.48943  0.76522  0.47499  1.0000
  C   C5        1.0  0.98098  0.77483  0.50872  1.0000
  C   C6        1.0  0.78847  0.72966  0.94117  1.0000
  C   C7        1.0  0.28941  0.72574  0.03620  1.0000
  C   C8        1.0  0.27303  0.72694  0.68281  1.0000
  C   C9        1.0  0.95229  0.52494  0.17269  1.0000
  C   C10       1.0  0.60494  0.51711  0.14383  1.0000
  C   C11       1.0  0.10494  0.48289  0.85617  1.0000
  C   C12       1.0  0.45229  0.47506  0.82731  1.0000
  C   C13       1.0  0.77303  0.27306  0.31719  1.0000
  C   C14       1.0  0.78941  0.27426  0.96380  1.0000
  C   C15       1.0  0.28847  0.27034  0.05883  1.0000
  C   C16       1.0  0.48098  0.22517  0.49128  1.0000
  C   C17       1.0  0.98943  0.23478  0.52502  1.0000
  C   C18       1.0  0.26854  0.22171  0.70068  1.0000
  C   C19       1.0  0.96958  0.02617  0.20748  1.0000
  C   C20       1.0  0.76335  0.01244  0.59078  1.0000
