data_image0
_chemical_formula_structural       Hg28Pd6
_chemical_formula_sum              "Hg28 Pd6"
_cell_length_a       17.8223
_cell_length_b       15.9598
_cell_length_c       9.25029
_cell_angle_alpha    85.601
_cell_angle_beta     63.2343
_cell_angle_gamma    31.1647

_space_group_name_H-M_alt    "P 1"
_space_group_IT_number       1

loop_
  _space_group_symop_operation_xyz
  'x, y, z'

loop_
  _atom_site_type_symbol
  _atom_site_label
  _atom_site_symmetry_multiplicity
  _atom_site_fract_x
  _atom_site_fract_y
  _atom_site_fract_z
  _atom_site_occupancy
  Hg  Hg1       1.0  0.08221  0.81285  0.79705  1.0000
  Hg  Hg2       1.0  0.17254  0.54397  0.88852  1.0000
  Hg  Hg3       1.0  0.22317  0.77683  0.22317  1.0000
  Hg  Hg4       1.0  0.94211  0.45295  0.43714  1.0000
  Hg  Hg5       1.0  0.82044  0.78567  0.44412  1.0000
  Hg  Hg6       1.0  0.30023  0.80588  0.46433  1.0000
  Hg  Hg7       1.0  0.79705  0.30789  0.08221  1.0000
  Hg  Hg8       1.0  0.54397  0.17254  0.39496  1.0000
  Hg  Hg9       1.0  0.39496  0.88853  0.54397  1.0000
  Hg  Hg10      1.0  0.94977  0.44412  0.78567  1.0000
  Hg  Hg11      1.0  0.42956  0.46433  0.80588  1.0000
  Hg  Hg12      1.0  0.36148  0.85504  0.07746  1.0000
  Hg  Hg13      1.0  0.16779  0.43715  0.45295  1.0000
  Hg  Hg14      1.0  0.88853  0.39496  0.17254  1.0000
  Hg  Hg15      1.0  0.07746  0.70603  0.36147  1.0000
  Hg  Hg16      1.0  0.80588  0.30023  0.42956  1.0000
  Hg  Hg17      1.0  0.47318  0.02682  0.47318  1.0000
  Hg  Hg18      1.0  0.30789  0.79705  0.81285  1.0000
  Hg  Hg19      1.0  0.46433  0.42956  0.30023  1.0000
  Hg  Hg20      1.0  0.45295  0.94211  0.16779  1.0000
  Hg  Hg21      1.0  0.77682  0.22318  0.77682  1.0000
  Hg  Hg22      1.0  0.43715  0.16779  0.94211  1.0000
  Hg  Hg23      1.0  0.02683  0.47317  0.02682  1.0000
  Hg  Hg24      1.0  0.44413  0.94977  0.82044  1.0000
  Hg  Hg25      1.0  0.78567  0.82044  0.94977  1.0000
  Hg  Hg26      1.0  0.85504  0.36148  0.70603  1.0000
  Hg  Hg27      1.0  0.81285  0.08221  0.30789  1.0000
  Hg  Hg28      1.0  0.70603  0.07746  0.85504  1.0000
  Pd  Pd1       1.0  0.62500  0.62500  0.12500  1.0000
  Pd  Pd2       1.0  0.75000  0.75000  0.75000  1.0000
  Pd  Pd3       1.0  0.62500  0.12500  0.62500  1.0000
  Pd  Pd4       1.0  0.62500  0.62500  0.62500  1.0000
  Pd  Pd5       1.0  0.12500  0.62500  0.62500  1.0000
  Pd  Pd6       1.0  0.50000  0.50000  0.50000  1.0000
