data_image0
_chemical_formula_structural       Pd2C10
_chemical_formula_sum              "Pd2 C10"
_cell_length_a       7.75829
_cell_length_b       7.75829
_cell_length_c       5.47877
_cell_angle_alpha    90
_cell_angle_beta     90
_cell_angle_gamma    90

_space_group_name_H-M_alt    "P 1"
_space_group_IT_number       1

loop_
  _space_group_symop_operation_xyz
  'x, y, z'

loop_
  _atom_site_type_symbol
  _atom_site_label
  _atom_site_symmetry_multiplicity
  _atom_site_fract_x
  _atom_site_fract_y
  _atom_site_fract_z
  _atom_site_occupancy
  Pd  Pd1       1.0  0.50000  0.00000  0.62208  1.0000
  Pd  Pd2       1.0  0.00000  0.50000  0.37792  1.0000
  C   C1        1.0  0.50000  0.00000  0.24794  1.0000
  C   C2        1.0  0.24219  0.03742  0.71716  1.0000
  C   C3        1.0  0.96258  0.24219  0.28284  1.0000
  C   C4        1.0  0.53742  0.25781  0.71716  1.0000
  C   C5        1.0  0.25781  0.46258  0.28284  1.0000
  C   C6        1.0  0.00000  0.50000  0.75206  1.0000
  C   C7        1.0  0.74219  0.53742  0.28284  1.0000
  C   C8        1.0  0.46258  0.74219  0.71716  1.0000
  C   C9        1.0  0.03742  0.75781  0.28284  1.0000
  C   C10       1.0  0.75781  0.96258  0.71716  1.0000
