data_image0
_chemical_formula_structural       PdC8
_chemical_formula_sum              "Pd1 C8"
_cell_length_a       9.6064
_cell_length_b       9.6064
_cell_length_c       9.6064
_cell_angle_alpha    119.16
_cell_angle_beta     119.16
_cell_angle_gamma    91.4612

_space_group_name_H-M_alt    "P 1"
_space_group_IT_number       1

loop_
  _space_group_symop_operation_xyz
  'x, y, z'

loop_
  _atom_site_type_symbol
  _atom_site_label
  _atom_site_symmetry_multiplicity
  _atom_site_fract_x
  _atom_site_fract_y
  _atom_site_fract_z
  _atom_site_occupancy
  Pd  Pd1       1.0  0.00000  0.00000  0.00000  1.0000
  C   C1        1.0  0.45111  0.45111  0.00000  1.0000
  C   C2        1.0  0.54889  0.54889  0.00000  1.0000
  C   C3        1.0  0.70097  0.20097  0.50000  1.0000
  C   C4        1.0  0.79903  0.29903  0.50000  1.0000
  C   C5        1.0  0.11352  0.33153  0.21801  1.0000
  C   C6        1.0  0.11352  0.89551  0.78199  1.0000
  C   C7        1.0  0.66847  0.88648  0.78199  1.0000
  C   C8        1.0  0.10449  0.88648  0.21801  1.0000
