data_image0
_chemical_formula_structural       Pd2C26
_chemical_formula_sum              "Pd2 C26"
_cell_length_a       5.15182
_cell_length_b       5.15182
_cell_length_c       5.15182
_cell_angle_alpha    60
_cell_angle_beta     60
_cell_angle_gamma    60

_space_group_name_H-M_alt    "P 1"
_space_group_IT_number       1

loop_
  _space_group_symop_operation_xyz
  'x, y, z'

loop_
  _atom_site_type_symbol
  _atom_site_label
  _atom_site_symmetry_multiplicity
  _atom_site_fract_x
  _atom_site_fract_y
  _atom_site_fract_z
  _atom_site_occupancy
  Pd  Pd1       1.0  0.25000  0.25000  0.25000  1.0000
  Pd  Pd2       1.0  0.75000  0.75000  0.75000  1.0000
  C   C1        1.0  0.50000  0.50000  0.50000  1.0000
  C   C2        1.0  0.00000  0.00000  0.00000  1.0000
  C   C3        1.0  0.78761  0.56350  0.21239  1.0000
  C   C4        1.0  0.21239  0.43650  0.78761  1.0000
  C   C5        1.0  0.56350  0.78761  0.43650  1.0000
  C   C6        1.0  0.43650  0.21239  0.56350  1.0000
  C   C7        1.0  0.28761  0.93650  0.71239  1.0000
  C   C8        1.0  0.71239  0.06350  0.28761  1.0000
  C   C9        1.0  0.93650  0.28761  0.06350  1.0000
  C   C10       1.0  0.06350  0.71239  0.93650  1.0000
  C   C11       1.0  0.21239  0.78761  0.56350  1.0000
  C   C12       1.0  0.78761  0.21239  0.43650  1.0000
  C   C13       1.0  0.43650  0.56350  0.78761  1.0000
  C   C14       1.0  0.56350  0.43650  0.21239  1.0000
  C   C15       1.0  0.71239  0.28761  0.93650  1.0000
  C   C16       1.0  0.28761  0.71239  0.06350  1.0000
  C   C17       1.0  0.06350  0.93650  0.28761  1.0000
  C   C18       1.0  0.93650  0.06350  0.71239  1.0000
  C   C19       1.0  0.56350  0.21239  0.78761  1.0000
  C   C20       1.0  0.43650  0.78761  0.21239  1.0000
  C   C21       1.0  0.78761  0.43650  0.56350  1.0000
  C   C22       1.0  0.21239  0.56350  0.43650  1.0000
  C   C23       1.0  0.93650  0.71239  0.28761  1.0000
  C   C24       1.0  0.06350  0.28761  0.71239  1.0000
  C   C25       1.0  0.28761  0.06350  0.93650  1.0000
  C   C26       1.0  0.71239  0.93650  0.06350  1.0000
