data_image0
_chemical_formula_structural       Pd4Hg8
_chemical_formula_sum              "Pd4 Hg8"
_cell_length_a       10.9951
_cell_length_b       10.9951
_cell_length_c       10.9951
_cell_angle_alpha    97.5801
_cell_angle_beta     97.5801
_cell_angle_gamma    137.407

_space_group_name_H-M_alt    "P 1"
_space_group_IT_number       1

loop_
  _space_group_symop_operation_xyz
  'x, y, z'

loop_
  _atom_site_type_symbol
  _atom_site_label
  _atom_site_symmetry_multiplicity
  _atom_site_fract_x
  _atom_site_fract_y
  _atom_site_fract_z
  _atom_site_occupancy
  Pd  Pd1       1.0  0.15186  0.14851  0.34823  1.0000
  Pd  Pd2       1.0  0.80028  0.80362  0.65177  1.0000
  Pd  Pd3       1.0  0.19638  0.84814  0.99666  1.0000
  Pd  Pd4       1.0  0.85149  0.19972  0.00334  1.0000
  Hg  Hg1       1.0  0.89587  0.98367  0.47452  1.0000
  Hg  Hg2       1.0  0.50914  0.42135  0.52548  1.0000
  Hg  Hg3       1.0  0.57865  0.10413  0.08780  1.0000
  Hg  Hg4       1.0  0.01633  0.49086  0.91220  1.0000
  Hg  Hg5       1.0  0.11934  0.30871  0.20270  1.0000
  Hg  Hg6       1.0  0.10601  0.91664  0.79730  1.0000
  Hg  Hg7       1.0  0.08336  0.88066  0.18937  1.0000
  Hg  Hg8       1.0  0.69129  0.89399  0.81063  1.0000
