data_image0
_chemical_formula_structural       PdC5
_chemical_formula_sum              "Pd1 C5"
_cell_length_a       6.52635
_cell_length_b       6.52635
_cell_length_c       6.52635
_cell_angle_alpha    140.549
_cell_angle_beta     133.004
_cell_angle_gamma    62.9854

_space_group_name_H-M_alt    "P 1"
_space_group_IT_number       1

loop_
  _space_group_symop_operation_xyz
  'x, y, z'

loop_
  _atom_site_type_symbol
  _atom_site_label
  _atom_site_symmetry_multiplicity
  _atom_site_fract_x
  _atom_site_fract_y
  _atom_site_fract_z
  _atom_site_occupancy
  Pd  Pd1       1.0  0.00000  0.00000  0.00000  1.0000
  C   C1        1.0  0.76488  0.50000  0.26488  1.0000
  C   C2        1.0  0.23512  0.50000  0.73512  1.0000
  C   C3        1.0  0.20222  0.20222  0.00000  1.0000
  C   C4        1.0  0.79778  0.79778  0.00000  1.0000
  C   C5        1.0  0.50000  0.00000  0.50000  1.0000
