data_image0
_chemical_formula_structural       Pd2Hg4
_chemical_formula_sum              "Pd2 Hg4"
_cell_length_a       10.2413
_cell_length_b       10.2413
_cell_length_c       10.2413
_cell_angle_alpha    126.048
_cell_angle_beta     120.03
_cell_angle_gamma    84.8987

_space_group_name_H-M_alt    "P 1"
_space_group_IT_number       1

loop_
  _space_group_symop_operation_xyz
  'x, y, z'

loop_
  _atom_site_type_symbol
  _atom_site_label
  _atom_site_symmetry_multiplicity
  _atom_site_fract_x
  _atom_site_fract_y
  _atom_site_fract_z
  _atom_site_occupancy
  Pd  Pd1       1.0  0.00000  0.00000  0.00000  1.0000
  Pd  Pd2       1.0  0.50000  0.00000  0.50000  1.0000
  Hg  Hg1       1.0  0.11645  0.31082  0.19437  1.0000
  Hg  Hg2       1.0  0.88355  0.68918  0.80563  1.0000
  Hg  Hg3       1.0  0.38355  0.07792  0.69437  1.0000
  Hg  Hg4       1.0  0.61645  0.92208  0.30563  1.0000
