data_image0
_chemical_formula_structural       Pd4C6
_chemical_formula_sum              "Pd4 C6"
_cell_length_a       6.09365
_cell_length_b       6.09365
_cell_length_c       6.06319
_cell_angle_alpha    80.0774
_cell_angle_beta     80.0774
_cell_angle_gamma    119.211

_space_group_name_H-M_alt    "P 1"
_space_group_IT_number       1

loop_
  _space_group_symop_operation_xyz
  'x, y, z'

loop_
  _atom_site_type_symbol
  _atom_site_label
  _atom_site_symmetry_multiplicity
  _atom_site_fract_x
  _atom_site_fract_y
  _atom_site_fract_z
  _atom_site_occupancy
  Pd  Pd1       1.0  0.91187  0.08813  0.75000  1.0000
  Pd  Pd2       1.0  0.08813  0.91187  0.25000  1.0000
  Pd  Pd3       1.0  0.74702  0.25298  0.25000  1.0000
  Pd  Pd4       1.0  0.25298  0.74702  0.75000  1.0000
  C   C1        1.0  0.67282  0.84744  0.50223  1.0000
  C   C2        1.0  0.32718  0.15256  0.49777  1.0000
  C   C3        1.0  0.00000  0.50000  0.50000  1.0000
  C   C4        1.0  0.15256  0.32718  0.99777  1.0000
  C   C5        1.0  0.84744  0.67282  0.00224  1.0000
  C   C6        1.0  0.50000  0.00000  0.00000  1.0000
