data_image0
_chemical_formula_structural       PdC34
_chemical_formula_sum              "Pd1 C34"
_cell_length_a       7.11814
_cell_length_b       7.11814
_cell_length_c       7.11814
_cell_angle_alpha    60
_cell_angle_beta     60
_cell_angle_gamma    60

_space_group_name_H-M_alt    "P 1"
_space_group_IT_number       1

loop_
  _space_group_symop_operation_xyz
  'x, y, z'

loop_
  _atom_site_type_symbol
  _atom_site_label
  _atom_site_symmetry_multiplicity
  _atom_site_fract_x
  _atom_site_fract_y
  _atom_site_fract_z
  _atom_site_occupancy
  Pd  Pd1       1.0  0.75000  0.75000  0.75000  1.0000
  C   C1        1.0  0.00000  0.00000  0.00000  1.0000
  C   C2        1.0  0.25000  0.25000  0.25000  1.0000
  C   C3        1.0  0.36110  0.75435  0.75435  1.0000
  C   C4        1.0  0.75435  0.36110  0.13019  1.0000
  C   C5        1.0  0.75435  0.13019  0.36110  1.0000
  C   C6        1.0  0.13019  0.75435  0.75435  1.0000
  C   C7        1.0  0.75435  0.75435  0.36110  1.0000
  C   C8        1.0  0.36110  0.13019  0.75435  1.0000
  C   C9        1.0  0.13019  0.36110  0.75435  1.0000
  C   C10       1.0  0.75435  0.75435  0.13019  1.0000
  C   C11       1.0  0.75435  0.36110  0.75435  1.0000
  C   C12       1.0  0.13019  0.75435  0.36110  1.0000
  C   C13       1.0  0.36110  0.75435  0.13019  1.0000
  C   C14       1.0  0.75435  0.13019  0.75435  1.0000
  C   C15       1.0  0.88913  0.49575  0.49575  1.0000
  C   C16       1.0  0.49575  0.88913  0.11938  1.0000
  C   C17       1.0  0.49575  0.11938  0.88913  1.0000
  C   C18       1.0  0.11938  0.49575  0.49575  1.0000
  C   C19       1.0  0.49575  0.49575  0.88913  1.0000
  C   C20       1.0  0.88913  0.11938  0.49575  1.0000
  C   C21       1.0  0.11938  0.88913  0.49575  1.0000
  C   C22       1.0  0.49575  0.49575  0.11938  1.0000
  C   C23       1.0  0.49575  0.88913  0.49575  1.0000
  C   C24       1.0  0.11938  0.49575  0.88913  1.0000
  C   C25       1.0  0.88913  0.49575  0.11938  1.0000
  C   C26       1.0  0.49575  0.11938  0.49575  1.0000
  C   C27       1.0  0.27684  0.90772  0.90772  1.0000
  C   C28       1.0  0.90772  0.27684  0.90772  1.0000
  C   C29       1.0  0.90772  0.90772  0.27684  1.0000
  C   C30       1.0  0.90772  0.90772  0.90772  1.0000
  C   C31       1.0  0.97350  0.34217  0.34217  1.0000
  C   C32       1.0  0.34217  0.97350  0.34217  1.0000
  C   C33       1.0  0.34217  0.34217  0.97350  1.0000
  C   C34       1.0  0.34217  0.34217  0.34217  1.0000
