data_image0
_chemical_formula_structural       Pd2C29
_chemical_formula_sum              "Pd2 C29"
_cell_length_a       5.81604
_cell_length_b       5.81604
_cell_length_c       5.81604
_cell_angle_alpha    132.731
_cell_angle_beta     109.905
_cell_angle_gamma    88.9104

_space_group_name_H-M_alt    "P 1"
_space_group_IT_number       1

loop_
  _space_group_symop_operation_xyz
  'x, y, z'

loop_
  _atom_site_type_symbol
  _atom_site_label
  _atom_site_symmetry_multiplicity
  _atom_site_fract_x
  _atom_site_fract_y
  _atom_site_fract_z
  _atom_site_occupancy
  Pd  Pd1       1.0  0.16299  0.50000  0.66299  1.0000
  Pd  Pd2       1.0  0.35944  0.00000  0.35944  1.0000
  C   C1        1.0  0.74356  0.50000  0.24356  1.0000
  C   C2        1.0  0.50903  0.87165  0.63738  1.0000
  C   C3        1.0  0.81626  0.65436  0.16190  1.0000
  C   C4        1.0  0.50754  0.34564  0.16190  1.0000
  C   C5        1.0  0.99231  0.15344  0.83887  1.0000
  C   C6        1.0  0.68542  0.84656  0.83887  1.0000
  C   C7        1.0  0.53581  0.53641  0.67897  1.0000
  C   C8        1.0  0.14256  0.14316  0.67897  1.0000
  C   C9        1.0  0.36385  0.35815  0.32906  1.0000
  C   C10       1.0  0.97091  0.96521  0.32906  1.0000
  C   C11       1.0  0.14256  0.46359  0.99941  1.0000
  C   C12       1.0  0.53581  0.85684  0.99941  1.0000
  C   C13       1.0  0.97092  0.64186  0.00571  1.0000
  C   C14       1.0  0.36385  0.03479  0.00571  1.0000
  C   C15       1.0  0.54754  0.58396  0.96358  1.0000
  C   C16       1.0  0.37961  0.41604  0.96358  1.0000
  C   C17       1.0  0.12368  0.08401  0.03967  1.0000
  C   C18       1.0  0.95566  0.91599  0.03967  1.0000
  C   C19       1.0  0.71255  0.42297  0.79633  1.0000
  C   C20       1.0  0.37336  0.08378  0.79633  1.0000
  C   C21       1.0  0.37336  0.57703  0.28958  1.0000
  C   C22       1.0  0.71255  0.91622  0.28958  1.0000
  C   C23       1.0  0.13331  0.41859  0.21073  1.0000
  C   C24       1.0  0.79214  0.07742  0.21073  1.0000
  C   C25       1.0  0.79214  0.58141  0.71472  1.0000
  C   C26       1.0  0.13331  0.92258  0.71472  1.0000
  C   C27       1.0  0.98934  0.60011  0.38923  1.0000
  C   C28       1.0  0.78912  0.39989  0.38923  1.0000
  C   C29       1.0  0.76572  0.12835  0.63738  1.0000
