data_image0
_chemical_formula_structural       Pd4C18
_chemical_formula_sum              "Pd4 C18"
_cell_length_a       6.06117
_cell_length_b       6.06117
_cell_length_c       16.9383
_cell_angle_alpha    90
_cell_angle_beta     90
_cell_angle_gamma    120

_space_group_name_H-M_alt    "P 1"
_space_group_IT_number       1

loop_
  _space_group_symop_operation_xyz
  'x, y, z'

loop_
  _atom_site_type_symbol
  _atom_site_label
  _atom_site_symmetry_multiplicity
  _atom_site_fract_x
  _atom_site_fract_y
  _atom_site_fract_z
  _atom_site_occupancy
  Pd  Pd1       1.0  0.00000  0.00000  0.35524  1.0000
  Pd  Pd2       1.0  0.00000  0.00000  0.15185  1.0000
  Pd  Pd3       1.0  0.00000  0.00000  0.65185  1.0000
  Pd  Pd4       1.0  0.00000  0.00000  0.85524  1.0000
  C   C1        1.0  0.00000  0.70495  0.59352  1.0000
  C   C2        1.0  0.29505  0.00000  0.09352  1.0000
  C   C3        1.0  0.00000  0.29505  0.09352  1.0000
  C   C4        1.0  0.29505  0.29505  0.59352  1.0000
  C   C5        1.0  0.26873  0.26873  0.24516  1.0000
  C   C6        1.0  0.70495  0.00000  0.59352  1.0000
  C   C7        1.0  0.30711  0.30711  0.90900  1.0000
  C   C8        1.0  0.70495  0.70495  0.09352  1.0000
  C   C9        1.0  0.26873  0.00000  0.74516  1.0000
  C   C10       1.0  0.30711  0.00000  0.40901  1.0000
  C   C11       1.0  0.73127  0.73127  0.74516  1.0000
  C   C12       1.0  0.69289  0.69289  0.40901  1.0000
  C   C13       1.0  0.00000  0.69289  0.90900  1.0000
  C   C14       1.0  1.00000  0.73127  0.24516  1.0000
  C   C15       1.0  0.69289  0.00000  0.90900  1.0000
  C   C16       1.0  0.73127  0.00000  0.24516  1.0000
  C   C17       1.0  0.00000  0.30711  0.40901  1.0000
  C   C18       1.0  0.00000  0.26873  0.74516  1.0000
