data_image0
_chemical_formula_structural       Pd4C20
_chemical_formula_sum              "Pd4 C20"
_cell_length_a       11.2565
_cell_length_b       6.31018
_cell_length_c       8.93489
_cell_angle_alpha    69.3367
_cell_angle_beta     90
_cell_angle_gamma    90

_space_group_name_H-M_alt    "P 1"
_space_group_IT_number       1

loop_
  _space_group_symop_operation_xyz
  'x, y, z'

loop_
  _atom_site_type_symbol
  _atom_site_label
  _atom_site_symmetry_multiplicity
  _atom_site_fract_x
  _atom_site_fract_y
  _atom_site_fract_z
  _atom_site_occupancy
  Pd  Pd1       1.0  0.75133  0.11878  0.59677  1.0000
  Pd  Pd2       1.0  0.25133  0.88122  0.90323  1.0000
  Pd  Pd3       1.0  0.24867  0.88122  0.40323  1.0000
  Pd  Pd4       1.0  0.74867  0.11878  0.09677  1.0000
  C   C1        1.0  0.86651  0.39825  0.56774  1.0000
  C   C2        1.0  0.36651  0.60175  0.93226  1.0000
  C   C3        1.0  0.13348  0.60175  0.43226  1.0000
  C   C4        1.0  0.63348  0.39825  0.06774  1.0000
  C   C5        1.0  0.61819  0.35843  0.48773  1.0000
  C   C6        1.0  0.11819  0.64157  0.01227  1.0000
  C   C7        1.0  0.38181  0.64157  0.51227  1.0000
  C   C8        1.0  0.88181  0.35843  0.98773  1.0000
  C   C9        1.0  0.38850  0.11832  0.79784  1.0000
  C   C10       1.0  0.88850  0.88168  0.70216  1.0000
  C   C11       1.0  0.61150  0.88168  0.20216  1.0000
  C   C12       1.0  0.11150  0.11832  0.29784  1.0000
  C   C13       1.0  0.13804  0.16419  0.87180  1.0000
  C   C14       1.0  0.63804  0.83581  0.62820  1.0000
  C   C15       1.0  0.86196  0.83581  0.12820  1.0000
  C   C16       1.0  0.36196  0.16419  0.37180  1.0000
  C   C17       1.0  0.69430  0.11707  0.84658  1.0000
  C   C18       1.0  0.19430  0.88293  0.65342  1.0000
  C   C19       1.0  0.30570  0.88293  0.15342  1.0000
  C   C20       1.0  0.80570  0.11707  0.34658  1.0000
