data_image0
_chemical_formula_structural       Pd4C28
_chemical_formula_sum              "Pd4 C28"
_cell_length_a       6.36483
_cell_length_b       6.36483
_cell_length_c       6.36483
_cell_angle_alpha    131.439
_cell_angle_beta     112.112
_cell_angle_gamma    87.8084

_space_group_name_H-M_alt    "P 1"
_space_group_IT_number       1

loop_
  _space_group_symop_operation_xyz
  'x, y, z'

loop_
  _atom_site_type_symbol
  _atom_site_label
  _atom_site_symmetry_multiplicity
  _atom_site_fract_x
  _atom_site_fract_y
  _atom_site_fract_z
  _atom_site_occupancy
  Pd  Pd1       1.0  1.00000  0.50000  0.00000  1.0000
  Pd  Pd2       1.0  0.00000  0.00000  0.50000  1.0000
  Pd  Pd3       1.0  0.38615  0.25000  0.13615  1.0000
  Pd  Pd4       1.0  0.61385  0.75000  0.86385  1.0000
  C   C1        1.0  0.24399  0.35906  0.88494  1.0000
  C   C2        1.0  0.37748  0.67571  0.20888  1.0000
  C   C3        1.0  0.37748  0.16860  0.70178  1.0000
  C   C4        1.0  0.75862  0.08223  0.67639  1.0000
  C   C5        1.0  0.35820  0.83393  0.52428  1.0000
  C   C6        1.0  0.59967  0.78102  0.50777  1.0000
  C   C7        1.0  0.59967  0.09189  0.81864  1.0000
  C   C8        1.0  0.90584  0.58223  0.32361  1.0000
  C   C9        1.0  0.02588  0.14094  0.88494  1.0000
  C   C10       1.0  0.19035  0.66607  0.52428  1.0000
  C   C11       1.0  0.03317  0.33140  0.20888  1.0000
  C   C12       1.0  0.03317  0.82429  0.70178  1.0000
  C   C13       1.0  0.77325  0.28102  0.18136  1.0000
  C   C14       1.0  0.77325  0.59189  0.49223  1.0000
  C   C15       1.0  0.22675  0.40811  0.50777  1.0000
  C   C16       1.0  0.22675  0.71898  0.81864  1.0000
  C   C17       1.0  0.96683  0.17571  0.29822  1.0000
  C   C18       1.0  0.96683  0.66861  0.79112  1.0000
  C   C19       1.0  0.80965  0.33393  0.47572  1.0000
  C   C20       1.0  0.97412  0.85906  0.11506  1.0000
  C   C21       1.0  0.09416  0.41777  0.67639  1.0000
  C   C22       1.0  0.40033  0.90811  0.18136  1.0000
  C   C23       1.0  0.40033  0.21898  0.49223  1.0000
  C   C24       1.0  0.64180  0.16607  0.47572  1.0000
  C   C25       1.0  0.24138  0.91777  0.32361  1.0000
  C   C26       1.0  0.62252  0.83139  0.29822  1.0000
  C   C27       1.0  0.62252  0.32429  0.79112  1.0000
  C   C28       1.0  0.75601  0.64095  0.11506  1.0000
