data_image0
_chemical_formula_structural       Pd2Hg6
_chemical_formula_sum              "Pd2 Hg6"
_cell_length_a       6.48135
_cell_length_b       6.48135
_cell_length_c       6.36897
_cell_angle_alpha    61.3167
_cell_angle_beta     61.3167
_cell_angle_gamma    91.0513

_space_group_name_H-M_alt    "P 1"
_space_group_IT_number       1

loop_
  _space_group_symop_operation_xyz
  'x, y, z'

loop_
  _atom_site_type_symbol
  _atom_site_label
  _atom_site_symmetry_multiplicity
  _atom_site_fract_x
  _atom_site_fract_y
  _atom_site_fract_z
  _atom_site_occupancy
  Pd  Pd1       1.0  0.71461  0.71461  0.07359  1.0000
  Pd  Pd2       1.0  0.28539  0.28539  0.92641  1.0000
  Hg  Hg1       1.0  0.72588  0.27412  0.50000  1.0000
  Hg  Hg2       1.0  0.27412  0.72588  0.50000  1.0000
  Hg  Hg3       1.0  0.81553  0.18447  0.00000  1.0000
  Hg  Hg4       1.0  0.18447  0.81553  0.00000  1.0000
  Hg  Hg5       1.0  0.71663  0.71663  0.63702  1.0000
  Hg  Hg6       1.0  0.28337  0.28337  0.36298  1.0000
