data_image0
_chemical_formula_structural       Hg12Pd4
_chemical_formula_sum              "Hg12 Pd4"
_cell_length_a       9.52994
_cell_length_b       9.52994
_cell_length_c       6.7359
_cell_angle_alpha    90
_cell_angle_beta     90
_cell_angle_gamma    138.789

_space_group_name_H-M_alt    "P 1"
_space_group_IT_number       1

loop_
  _space_group_symop_operation_xyz
  'x, y, z'

loop_
  _atom_site_type_symbol
  _atom_site_label
  _atom_site_symmetry_multiplicity
  _atom_site_fract_x
  _atom_site_fract_y
  _atom_site_fract_z
  _atom_site_occupancy
  Hg  Hg1       1.0  0.16018  0.16018  0.33786  1.0000
  Hg  Hg2       1.0  0.66018  0.66018  0.16214  1.0000
  Hg  Hg3       1.0  0.33982  0.33982  0.83786  1.0000
  Hg  Hg4       1.0  0.83982  0.83982  0.66214  1.0000
  Hg  Hg5       1.0  0.16172  0.49713  0.17026  1.0000
  Hg  Hg6       1.0  0.99713  0.66173  0.32974  1.0000
  Hg  Hg7       1.0  0.33827  0.00287  0.67026  1.0000
  Hg  Hg8       1.0  0.50287  0.83827  0.82974  1.0000
  Hg  Hg9       1.0  0.83827  0.50287  0.82974  1.0000
  Hg  Hg10      1.0  0.00287  0.33827  0.67026  1.0000
  Hg  Hg11      1.0  0.66173  0.99713  0.32974  1.0000
  Hg  Hg12      1.0  0.49713  0.16173  0.17026  1.0000
  Pd  Pd1       1.0  0.91484  0.08516  0.00000  1.0000
  Pd  Pd2       1.0  0.58516  0.41484  0.50000  1.0000
  Pd  Pd3       1.0  0.08516  0.91484  0.00000  1.0000
  Pd  Pd4       1.0  0.41484  0.58516  0.50000  1.0000
