data_image0
_chemical_formula_structural       Pd6Hg20
_chemical_formula_sum              "Pd6 Hg20"
_cell_length_a       10.6455
_cell_length_b       13.0112
_cell_length_c       16.4566
_cell_angle_alpha    110.949
_cell_angle_beta     108.632
_cell_angle_gamma    92.0376

_space_group_name_H-M_alt    "P 1"
_space_group_IT_number       1

loop_
  _space_group_symop_operation_xyz
  'x, y, z'

loop_
  _atom_site_type_symbol
  _atom_site_label
  _atom_site_symmetry_multiplicity
  _atom_site_fract_x
  _atom_site_fract_y
  _atom_site_fract_z
  _atom_site_occupancy
  Pd  Pd1       1.0  0.92165  0.51718  0.83716  1.0000
  Pd  Pd2       1.0  0.80999  0.97823  0.62249  1.0000
  Pd  Pd3       1.0  0.25735  0.99225  0.99713  1.0000
  Pd  Pd4       1.0  0.19001  0.02177  0.37751  1.0000
  Pd  Pd5       1.0  0.07835  0.48282  0.16284  1.0000
  Pd  Pd6       1.0  0.74265  0.00774  0.00287  1.0000
  Hg  Hg1       1.0  0.33522  0.02066  0.20733  1.0000
  Hg  Hg2       1.0  0.34812  0.46433  0.27731  1.0000
  Hg  Hg3       1.0  0.99056  0.79643  0.94916  1.0000
  Hg  Hg4       1.0  0.86992  0.25600  0.74170  1.0000
  Hg  Hg5       1.0  0.50008  0.18073  0.04405  1.0000
  Hg  Hg6       1.0  0.76312  0.73025  0.53561  1.0000
  Hg  Hg7       1.0  0.92195  0.46031  0.27782  1.0000
  Hg  Hg8       1.0  0.12506  0.98256  0.79233  1.0000
  Hg  Hg9       1.0  0.19325  0.50184  0.00121  1.0000
  Hg  Hg10      1.0  0.00000  0.00000  0.50000  1.0000
  Hg  Hg11      1.0  0.87494  0.01744  0.20767  1.0000
  Hg  Hg12      1.0  0.07806  0.53969  0.72218  1.0000
  Hg  Hg13      1.0  0.23688  0.26975  0.46439  1.0000
  Hg  Hg14      1.0  0.49993  0.81927  0.95595  1.0000
  Hg  Hg15      1.0  0.13008  0.74400  0.25830  1.0000
  Hg  Hg16      1.0  0.00944  0.20357  0.05084  1.0000
  Hg  Hg17      1.0  0.65188  0.53566  0.72269  1.0000
  Hg  Hg18      1.0  0.50000  0.00000  0.50000  1.0000
  Hg  Hg19      1.0  0.80676  0.49817  0.99879  1.0000
  Hg  Hg20      1.0  0.66478  0.97933  0.79266  1.0000
