data_image0
_chemical_formula_structural       Pd4Hg8
_chemical_formula_sum              "Pd4 Hg8"
_cell_length_a       8.27261
_cell_length_b       8.27261
_cell_length_c       13.4313
_cell_angle_alpha    90
_cell_angle_beta     90
_cell_angle_gamma    90

_space_group_name_H-M_alt    "P 1"
_space_group_IT_number       1

loop_
  _space_group_symop_operation_xyz
  'x, y, z'

loop_
  _atom_site_type_symbol
  _atom_site_label
  _atom_site_symmetry_multiplicity
  _atom_site_fract_x
  _atom_site_fract_y
  _atom_site_fract_z
  _atom_site_occupancy
  Pd  Pd1       1.0  0.00378  0.00378  0.50000  1.0000
  Pd  Pd2       1.0  0.49622  0.50378  0.75000  1.0000
  Pd  Pd3       1.0  0.50378  0.49622  0.25000  1.0000
  Pd  Pd4       1.0  0.99622  0.99622  0.00000  1.0000
  Hg  Hg1       1.0  0.74331  0.85792  0.32853  1.0000
  Hg  Hg2       1.0  0.25669  0.14208  0.82853  1.0000
  Hg  Hg3       1.0  0.85792  0.74331  0.67147  1.0000
  Hg  Hg4       1.0  0.35792  0.75669  0.07853  1.0000
  Hg  Hg5       1.0  0.14208  0.25669  0.17147  1.0000
  Hg  Hg6       1.0  0.24331  0.64208  0.42147  1.0000
  Hg  Hg7       1.0  0.75669  0.35792  0.92147  1.0000
  Hg  Hg8       1.0  0.64208  0.24331  0.57853  1.0000
