data_image0
_chemical_formula_structural       N6Pd2
_chemical_formula_sum              "N6 Pd2"
_cell_length_a       3.79645
_cell_length_b       3.79645
_cell_length_c       3.79645
_cell_angle_alpha    73.934
_cell_angle_beta     73.934
_cell_angle_gamma    73.934

_space_group_name_H-M_alt    "P 1"
_space_group_IT_number       1

loop_
  _space_group_symop_operation_xyz
  'x, y, z'

loop_
  _atom_site_type_symbol
  _atom_site_label
  _atom_site_symmetry_multiplicity
  _atom_site_fract_x
  _atom_site_fract_y
  _atom_site_fract_z
  _atom_site_occupancy
  N   N1        1.0  0.33498  0.66502  0.00000  1.0000
  N   N2        1.0  0.00000  0.33499  0.66501  1.0000
  N   N3        1.0  0.66501  1.00000  0.33498  1.0000
  N   N4        1.0  0.00000  0.66502  0.33498  1.0000
  N   N5        1.0  0.33498  0.00000  0.66501  1.0000
  N   N6        1.0  0.66502  0.33498  0.00000  1.0000
  Pd  Pd1       1.0  0.83534  0.83534  0.83534  1.0000
  Pd  Pd2       1.0  0.16466  0.16466  0.16466  1.0000
