data_image0
_chemical_formula_structural       PdHg5
_chemical_formula_sum              "Pd1 Hg5"
_cell_length_a       9.96416
_cell_length_b       9.96416
_cell_length_c       9.96416
_cell_angle_alpha    140.549
_cell_angle_beta     133.004
_cell_angle_gamma    62.9854

_space_group_name_H-M_alt    "P 1"
_space_group_IT_number       1

loop_
  _space_group_symop_operation_xyz
  'x, y, z'

loop_
  _atom_site_type_symbol
  _atom_site_label
  _atom_site_symmetry_multiplicity
  _atom_site_fract_x
  _atom_site_fract_y
  _atom_site_fract_z
  _atom_site_occupancy
  Pd  Pd1       1.0  0.00000  0.00000  0.00000  1.0000
  Hg  Hg1       1.0  0.76488  0.50000  0.26488  1.0000
  Hg  Hg2       1.0  0.23512  0.50000  0.73512  1.0000
  Hg  Hg3       1.0  0.20222  0.20222  0.00000  1.0000
  Hg  Hg4       1.0  0.79778  0.79778  1.00000  1.0000
  Hg  Hg5       1.0  0.50000  1.00000  0.50000  1.0000
