data_image0
_chemical_formula_structural       PdN7
_chemical_formula_sum              "Pd1 N7"
_cell_length_a       10.4359
_cell_length_b       10.4359
_cell_length_c       10.4359
_cell_angle_alpha    16.8842
_cell_angle_beta     16.8842
_cell_angle_gamma    16.8842

_space_group_name_H-M_alt    "P 1"
_space_group_IT_number       1

loop_
  _space_group_symop_operation_xyz
  'x, y, z'

loop_
  _atom_site_type_symbol
  _atom_site_label
  _atom_site_symmetry_multiplicity
  _atom_site_fract_x
  _atom_site_fract_y
  _atom_site_fract_z
  _atom_site_occupancy
  Pd  Pd1       1.0  0.80237  0.80237  0.80237  1.0000
  N   N1        1.0  0.91079  0.91079  0.91079  1.0000
  N   N2        1.0  0.73919  0.73919  0.73919  1.0000
  N   N3        1.0  0.55621  0.55621  0.55622  1.0000
  N   N4        1.0  0.49723  0.49723  0.49723  1.0000
  N   N5        1.0  0.38545  0.38544  0.38545  1.0000
  N   N6        1.0  0.32480  0.32480  0.32480  1.0000
  N   N7        1.0  0.97114  0.97114  0.97114  1.0000
