data_image0
_chemical_formula_structural       Pd2N6
_chemical_formula_sum              "Pd2 N6"
_cell_length_a       4.92859
_cell_length_b       4.92859
_cell_length_c       4.92859
_cell_angle_alpha    119.219
_cell_angle_beta     106.995
_cell_angle_gamma    102.684

_space_group_name_H-M_alt    "P 1"
_space_group_IT_number       1

loop_
  _space_group_symop_operation_xyz
  'x, y, z'

loop_
  _atom_site_type_symbol
  _atom_site_label
  _atom_site_symmetry_multiplicity
  _atom_site_fract_x
  _atom_site_fract_y
  _atom_site_fract_z
  _atom_site_occupancy
  Pd  Pd1       1.0  0.75000  0.50000  0.25000  1.0000
  Pd  Pd2       1.0  0.25000  0.50000  0.75000  1.0000
  N   N1        1.0  0.90658  0.09346  0.18688  1.0000
  N   N2        1.0  0.59342  0.28029  0.68688  1.0000
  N   N3        1.0  0.00000  0.00000  0.00000  1.0000
  N   N4        1.0  0.50000  1.00000  0.50000  1.0000
  N   N5        1.0  0.09342  0.90654  0.81312  1.0000
  N   N6        1.0  0.40658  0.71971  0.31312  1.0000
