data_image0
_chemical_formula_structural       Hg8Pd4
_chemical_formula_sum              "Hg8 Pd4"
_cell_length_a       2.94363
_cell_length_b       2.94363
_cell_length_c       28.6918
_cell_angle_alpha    90
_cell_angle_beta     90
_cell_angle_gamma    120

_space_group_name_H-M_alt    "P 1"
_space_group_IT_number       1

loop_
  _space_group_symop_operation_xyz
  'x, y, z'

loop_
  _atom_site_type_symbol
  _atom_site_label
  _atom_site_symmetry_multiplicity
  _atom_site_fract_x
  _atom_site_fract_y
  _atom_site_fract_z
  _atom_site_occupancy
  Hg  Hg1       1.0  0.33333  0.66667  0.66657  1.0000
  Hg  Hg2       1.0  0.33333  0.66667  0.33343  1.0000
  Hg  Hg3       1.0  0.00000  0.00000  0.91685  1.0000
  Hg  Hg4       1.0  0.00000  0.00000  0.58086  1.0000
  Hg  Hg5       1.0  0.00000  0.00000  0.24737  1.0000
  Hg  Hg6       1.0  0.00000  0.00000  0.08315  1.0000
  Hg  Hg7       1.0  0.00000  0.00000  0.75263  1.0000
  Hg  Hg8       1.0  0.00000  0.00000  0.41914  1.0000
  Pd  Pd1       1.0  0.66667  0.33333  0.83367  1.0000
  Pd  Pd2       1.0  0.66667  0.33333  0.50000  1.0000
  Pd  Pd3       1.0  0.66667  0.33333  0.16633  1.0000
  Pd  Pd4       1.0  0.33333  0.66667  0.00000  1.0000
