data_image0
_chemical_formula_structural       Pd2Hg6
_chemical_formula_sum              "Pd2 Hg6"
_cell_length_a       8.96206
_cell_length_b       8.96206
_cell_length_c       8.96206
_cell_angle_alpha    55.9658
_cell_angle_beta     55.9658
_cell_angle_gamma    55.9658

_space_group_name_H-M_alt    "P 1"
_space_group_IT_number       1

loop_
  _space_group_symop_operation_xyz
  'x, y, z'

loop_
  _atom_site_type_symbol
  _atom_site_label
  _atom_site_symmetry_multiplicity
  _atom_site_fract_x
  _atom_site_fract_y
  _atom_site_fract_z
  _atom_site_occupancy
  Pd  Pd1       1.0  0.00000  0.00000  0.00000  1.0000
  Pd  Pd2       1.0  0.50000  0.50000  0.50000  1.0000
  Hg  Hg1       1.0  0.09752  0.37241  0.76854  1.0000
  Hg  Hg2       1.0  0.76854  0.09752  0.37241  1.0000
  Hg  Hg3       1.0  0.37241  0.76854  0.09752  1.0000
  Hg  Hg4       1.0  0.90248  0.62759  0.23146  1.0000
  Hg  Hg5       1.0  0.23146  0.90248  0.62759  1.0000
  Hg  Hg6       1.0  0.62759  0.23146  0.90248  1.0000
