data_image0
_chemical_formula_structural       Hg13Pd13
_chemical_formula_sum              "Hg13 Pd13"
_cell_length_a       8.3682
_cell_length_b       8.3682
_cell_length_c       8.3682
_cell_angle_alpha    109.339
_cell_angle_beta     109.339
_cell_angle_gamma    109.339

_space_group_name_H-M_alt    "P 1"
_space_group_IT_number       1

loop_
  _space_group_symop_operation_xyz
  'x, y, z'

loop_
  _atom_site_type_symbol
  _atom_site_label
  _atom_site_symmetry_multiplicity
  _atom_site_fract_x
  _atom_site_fract_y
  _atom_site_fract_z
  _atom_site_occupancy
  Hg  Hg1       1.0  0.50000  0.50000  0.50000  1.0000
  Hg  Hg2       1.0  0.85421  0.19797  0.19797  1.0000
  Hg  Hg3       1.0  0.19797  0.85421  0.19797  1.0000
  Hg  Hg4       1.0  0.19797  0.19797  0.85421  1.0000
  Hg  Hg5       1.0  0.14579  0.80203  0.80203  1.0000
  Hg  Hg6       1.0  0.80203  0.14579  0.80203  1.0000
  Hg  Hg7       1.0  0.80203  0.80203  0.14579  1.0000
  Hg  Hg8       1.0  0.39351  0.17691  0.17691  1.0000
  Hg  Hg9       1.0  0.17691  0.39351  0.17691  1.0000
  Hg  Hg10      1.0  0.17691  0.17691  0.39351  1.0000
  Hg  Hg11      1.0  0.60649  0.82309  0.82309  1.0000
  Hg  Hg12      1.0  0.82309  0.60649  0.82309  1.0000
  Hg  Hg13      1.0  0.82309  0.82309  0.60649  1.0000
  Pd  Pd1       1.0  0.00000  0.00000  0.00000  1.0000
  Pd  Pd2       1.0  0.19162  0.54290  0.54290  1.0000
  Pd  Pd3       1.0  0.54290  0.19162  0.54290  1.0000
  Pd  Pd4       1.0  0.54290  0.54290  0.19162  1.0000
  Pd  Pd5       1.0  0.80838  0.45710  0.45710  1.0000
  Pd  Pd6       1.0  0.45710  0.80838  0.45710  1.0000
  Pd  Pd7       1.0  0.45710  0.45710  0.80838  1.0000
  Pd  Pd8       1.0  0.11485  0.50000  0.88515  1.0000
  Pd  Pd9       1.0  0.88515  0.11485  0.50000  1.0000
  Pd  Pd10      1.0  0.50000  0.88515  0.11485  1.0000
  Pd  Pd11      1.0  0.88515  0.50000  0.11485  1.0000
  Pd  Pd12      1.0  0.11485  0.88515  0.50000  1.0000
  Pd  Pd13      1.0  0.50000  0.11485  0.88515  1.0000
