data_image0
_chemical_formula_structural       Pd4N24
_chemical_formula_sum              "Pd4 N24"
_cell_length_a       2.98616
_cell_length_b       5.56158
_cell_length_c       7.40207
_cell_angle_alpha    90
_cell_angle_beta     90
_cell_angle_gamma    90

_space_group_name_H-M_alt    "P 1"
_space_group_IT_number       1

loop_
  _space_group_symop_operation_xyz
  'x, y, z'

loop_
  _atom_site_type_symbol
  _atom_site_label
  _atom_site_symmetry_multiplicity
  _atom_site_fract_x
  _atom_site_fract_y
  _atom_site_fract_z
  _atom_site_occupancy
  Pd  Pd1       1.0  0.25000  0.14444  0.81853  1.0000
  Pd  Pd2       1.0  0.25000  0.35556  0.31853  1.0000
  Pd  Pd3       1.0  0.75000  0.85556  0.18147  1.0000
  Pd  Pd4       1.0  0.75000  0.64444  0.68147  1.0000
  N   N1        1.0  0.25000  0.88794  0.00384  1.0000
  N   N2        1.0  0.25000  0.61206  0.50384  1.0000
  N   N3        1.0  0.75000  0.11206  0.99616  1.0000
  N   N4        1.0  0.75000  0.38794  0.49616  1.0000
  N   N5        1.0  0.25000  0.78761  0.80449  1.0000
  N   N6        1.0  0.25000  0.71239  0.30449  1.0000
  N   N7        1.0  0.75000  0.21239  0.19551  1.0000
  N   N8        1.0  0.75000  0.28761  0.69551  1.0000
  N   N9        1.0  0.25000  0.50967  0.85217  1.0000
  N   N10       1.0  0.25000  0.99033  0.35217  1.0000
  N   N11       1.0  0.75000  0.49033  0.14783  1.0000
  N   N12       1.0  0.75000  0.00967  0.64783  1.0000
  N   N13       1.0  0.25000  0.40161  0.64514  1.0000
  N   N14       1.0  0.25000  0.09839  0.14514  1.0000
  N   N15       1.0  0.75000  0.59839  0.35486  1.0000
  N   N16       1.0  0.75000  0.90161  0.85486  1.0000
  N   N17       1.0  0.25000  0.86880  0.59659  1.0000
  N   N18       1.0  0.25000  0.63120  0.09659  1.0000
  N   N19       1.0  0.75000  0.13120  0.40341  1.0000
  N   N20       1.0  0.75000  0.36880  0.90341  1.0000
  N   N21       1.0  0.25000  0.15000  0.54104  1.0000
  N   N22       1.0  0.25000  0.35000  0.04104  1.0000
  N   N23       1.0  0.75000  0.85000  0.45896  1.0000
  N   N24       1.0  0.75000  0.65000  0.95896  1.0000
