data_image0
_chemical_formula_structural       PdN7
_chemical_formula_sum              "Pd1 N7"
_cell_length_a       3.03412
_cell_length_b       4.45634
_cell_length_c       6.18566
_cell_angle_alpha    90
_cell_angle_beta     90
_cell_angle_gamma    90

_space_group_name_H-M_alt    "P 1"
_space_group_IT_number       1

loop_
  _space_group_symop_operation_xyz
  'x, y, z'

loop_
  _atom_site_type_symbol
  _atom_site_label
  _atom_site_symmetry_multiplicity
  _atom_site_fract_x
  _atom_site_fract_y
  _atom_site_fract_z
  _atom_site_occupancy
  Pd  Pd1       1.0  0.50000  0.65724  0.50000  1.0000
  N   N1        1.0  0.50000  0.89856  0.24148  1.0000
  N   N2        1.0  0.50000  0.89856  0.75852  1.0000
  N   N3        1.0  0.00000  0.36109  0.50000  1.0000
  N   N4        1.0  0.00000  0.40180  0.00000  1.0000
  N   N5        1.0  0.50000  0.64459  0.00000  1.0000
  N   N6        1.0  0.00000  0.14179  0.24557  1.0000
  N   N7        1.0  0.00000  0.14179  0.75443  1.0000
