data_image0
_chemical_formula_structural       Pd2N6
_chemical_formula_sum              "Pd2 N6"
_cell_length_a       4.04408
_cell_length_b       4.06538
_cell_length_c       4.10546
_cell_angle_alpha    70.0761
_cell_angle_beta     79.6272
_cell_angle_gamma    74.6843

_space_group_name_H-M_alt    "P 1"
_space_group_IT_number       1

loop_
  _space_group_symop_operation_xyz
  'x, y, z'

loop_
  _atom_site_type_symbol
  _atom_site_label
  _atom_site_symmetry_multiplicity
  _atom_site_fract_x
  _atom_site_fract_y
  _atom_site_fract_z
  _atom_site_occupancy
  Pd  Pd1       1.0  0.67571  0.64284  0.64790  1.0000
  Pd  Pd2       1.0  0.32429  0.35716  0.35210  1.0000
  N   N1        1.0  0.59893  0.80001  0.10157  1.0000
  N   N2        1.0  0.40107  0.19999  0.89843  1.0000
  N   N3        1.0  0.00483  0.19943  0.99948  1.0000
  N   N4        1.0  0.99517  0.80057  0.00052  1.0000
  N   N5        1.0  0.12711  0.82234  0.60578  1.0000
  N   N6        1.0  0.87289  0.17765  0.39422  1.0000
