data_image0
_chemical_formula_structural       Hg16Pd13
_chemical_formula_sum              "Hg16 Pd13"
_cell_length_a       11.2781
_cell_length_b       11.2781
_cell_length_c       11.2781
_cell_angle_alpha    135.421
_cell_angle_beta     116.017
_cell_angle_gamma    81.32

_space_group_name_H-M_alt    "P 1"
_space_group_IT_number       1

loop_
  _space_group_symop_operation_xyz
  'x, y, z'

loop_
  _atom_site_type_symbol
  _atom_site_label
  _atom_site_symmetry_multiplicity
  _atom_site_fract_x
  _atom_site_fract_y
  _atom_site_fract_z
  _atom_site_occupancy
  Hg  Hg1       1.0  0.62640  0.87681  0.25040  1.0000
  Hg  Hg2       1.0  0.62640  0.37600  0.74960  1.0000
  Hg  Hg3       1.0  0.25687  0.00000  0.25687  1.0000
  Hg  Hg4       1.0  0.37360  0.12319  0.74960  1.0000
  Hg  Hg5       1.0  0.37360  0.62400  0.25040  1.0000
  Hg  Hg6       1.0  0.01040  0.25036  0.76004  1.0000
  Hg  Hg7       1.0  0.12965  0.36918  0.23953  1.0000
  Hg  Hg8       1.0  0.98960  0.74964  0.23996  1.0000
  Hg  Hg9       1.0  0.12965  0.89011  0.76047  1.0000
  Hg  Hg10      1.0  0.74933  0.50000  0.24933  1.0000
  Hg  Hg11      1.0  0.87035  0.63082  0.76047  1.0000
  Hg  Hg12      1.0  0.74313  0.00000  0.74313  1.0000
  Hg  Hg13      1.0  0.87035  0.10989  0.23953  1.0000
  Hg  Hg14      1.0  0.50968  0.74964  0.76004  1.0000
  Hg  Hg15      1.0  0.49032  0.25036  0.23996  1.0000
  Hg  Hg16      1.0  0.25067  0.50000  0.75067  1.0000
  Pd  Pd1       1.0  0.50000  0.50000  0.00000  1.0000
  Pd  Pd2       1.0  0.12554  0.12453  0.49975  1.0000
  Pd  Pd3       1.0  0.12554  0.62579  0.00100  1.0000
  Pd  Pd4       1.0  0.24983  0.74983  0.50000  1.0000
  Pd  Pd5       1.0  0.87446  0.37421  0.99900  1.0000
  Pd  Pd6       1.0  0.00000  0.50000  0.50000  1.0000
  Pd  Pd7       1.0  0.87446  0.87547  0.50025  1.0000
  Pd  Pd8       1.0  0.00000  0.00000  0.00000  1.0000
  Pd  Pd9       1.0  0.62479  0.62579  0.50025  1.0000
  Pd  Pd10      1.0  0.62479  0.12453  0.99900  1.0000
  Pd  Pd11      1.0  0.75017  0.25017  0.50000  1.0000
  Pd  Pd12      1.0  0.37521  0.87547  0.00100  1.0000
  Pd  Pd13      1.0  0.37521  0.37421  0.49975  1.0000
