data_image0
_chemical_formula_structural       Pd4N36
_chemical_formula_sum              "Pd4 N36"
_cell_length_a       13.0265
_cell_length_b       7.76933
_cell_length_c       8.14791
_cell_angle_alpha    72.7707
_cell_angle_beta     90
_cell_angle_gamma    90

_space_group_name_H-M_alt    "P 1"
_space_group_IT_number       1

loop_
  _space_group_symop_operation_xyz
  'x, y, z'

loop_
  _atom_site_type_symbol
  _atom_site_label
  _atom_site_symmetry_multiplicity
  _atom_site_fract_x
  _atom_site_fract_y
  _atom_site_fract_z
  _atom_site_occupancy
  Pd  Pd1       1.0  0.55336  0.37835  0.28680  1.0000
  Pd  Pd2       1.0  0.44664  0.62165  0.71320  1.0000
  Pd  Pd3       1.0  0.05336  0.12165  0.71320  1.0000
  Pd  Pd4       1.0  0.94664  0.87835  0.28680  1.0000
  N   N1        1.0  0.80225  0.85049  0.17278  1.0000
  N   N2        1.0  0.18317  0.51790  0.47735  1.0000
  N   N3        1.0  0.22261  0.02191  0.97433  1.0000
  N   N4        1.0  0.52123  0.92149  0.21923  1.0000
  N   N5        1.0  0.25060  0.90845  0.11363  1.0000
  N   N6        1.0  0.98202  0.13659  0.11077  1.0000
  N   N7        1.0  0.22069  0.02209  0.49974  1.0000
  N   N8        1.0  0.51798  0.63659  0.11077  1.0000
  N   N9        1.0  0.31683  0.01790  0.47735  1.0000
  N   N10       1.0  0.61740  0.47637  0.48634  1.0000
  N   N11       1.0  0.47877  0.07851  0.78077  1.0000
  N   N12       1.0  0.69775  0.35049  0.17278  1.0000
  N   N13       1.0  0.77931  0.97791  0.50026  1.0000
  N   N14       1.0  0.11740  0.02363  0.51366  1.0000
  N   N15       1.0  0.19775  0.14951  0.82722  1.0000
  N   N16       1.0  0.74940  0.09155  0.88637  1.0000
  N   N17       1.0  0.02104  0.71952  0.82853  1.0000
  N   N18       1.0  0.88260  0.97638  0.48634  1.0000
  N   N19       1.0  0.01798  0.86341  0.88923  1.0000
  N   N20       1.0  0.27739  0.52190  0.97433  1.0000
  N   N21       1.0  0.38260  0.52363  0.51366  1.0000
  N   N22       1.0  0.77739  0.97810  0.02567  1.0000
  N   N23       1.0  0.48202  0.36341  0.88923  1.0000
  N   N24       1.0  0.30225  0.64951  0.82722  1.0000
  N   N25       1.0  0.68317  0.98210  0.52265  1.0000
  N   N26       1.0  0.47896  0.21952  0.82853  1.0000
  N   N27       1.0  0.02123  0.57851  0.78077  1.0000
  N   N28       1.0  0.27931  0.52209  0.49974  1.0000
  N   N29       1.0  0.24940  0.40845  0.11363  1.0000
  N   N30       1.0  0.72261  0.47809  0.02567  1.0000
  N   N31       1.0  0.75060  0.59155  0.88637  1.0000
  N   N32       1.0  0.52104  0.78048  0.17147  1.0000
  N   N33       1.0  0.72069  0.47791  0.50026  1.0000
  N   N34       1.0  0.81683  0.48210  0.52265  1.0000
  N   N35       1.0  0.97877  0.42149  0.21923  1.0000
  N   N36       1.0  0.97896  0.28048  0.17147  1.0000
