data_image0
_chemical_formula_structural       Pd2Hg24
_chemical_formula_sum              "Pd2 Hg24"
_cell_length_a       6.80858
_cell_length_b       6.80858
_cell_length_c       23.2961
_cell_angle_alpha    90
_cell_angle_beta     90
_cell_angle_gamma    119.972

_space_group_name_H-M_alt    "P 1"
_space_group_IT_number       1

loop_
  _space_group_symop_operation_xyz
  'x, y, z'

loop_
  _atom_site_type_symbol
  _atom_site_label
  _atom_site_symmetry_multiplicity
  _atom_site_fract_x
  _atom_site_fract_y
  _atom_site_fract_z
  _atom_site_occupancy
  Pd  Pd1       1.0  0.83340  0.83340  0.75000  1.0000
  Pd  Pd2       1.0  0.16660  0.16660  0.25000  1.0000
  Hg  Hg1       1.0  0.83297  0.16643  0.12190  1.0000
  Hg  Hg2       1.0  0.83297  0.16643  0.37810  1.0000
  Hg  Hg3       1.0  0.50038  0.16697  0.12181  1.0000
  Hg  Hg4       1.0  0.50038  0.16697  0.37819  1.0000
  Hg  Hg5       1.0  0.83357  0.16703  0.62190  1.0000
  Hg  Hg6       1.0  0.83357  0.16703  0.87810  1.0000
  Hg  Hg7       1.0  0.83303  0.49962  0.62181  1.0000
  Hg  Hg8       1.0  0.83303  0.49962  0.87819  1.0000
  Hg  Hg9       1.0  0.16643  0.83297  0.12190  1.0000
  Hg  Hg10      1.0  0.16643  0.83297  0.37810  1.0000
  Hg  Hg11      1.0  0.83350  0.83350  0.12187  1.0000
  Hg  Hg12      1.0  0.83350  0.83350  0.37813  1.0000
  Hg  Hg13      1.0  0.16703  0.83357  0.62190  1.0000
  Hg  Hg14      1.0  0.16703  0.83357  0.87810  1.0000
  Hg  Hg15      1.0  0.16650  0.16650  0.62187  1.0000
  Hg  Hg16      1.0  0.16650  0.16650  0.87813  1.0000
  Hg  Hg17      1.0  0.49977  0.49977  0.12191  1.0000
  Hg  Hg18      1.0  0.49977  0.49977  0.37809  1.0000
  Hg  Hg19      1.0  0.16697  0.50038  0.12181  1.0000
  Hg  Hg20      1.0  0.16697  0.50038  0.37819  1.0000
  Hg  Hg21      1.0  0.50023  0.50023  0.62191  1.0000
  Hg  Hg22      1.0  0.50023  0.50023  0.87809  1.0000
  Hg  Hg23      1.0  0.49962  0.83303  0.62181  1.0000
  Hg  Hg24      1.0  0.49962  0.83303  0.87819  1.0000
