data_image0
_chemical_formula_structural       Hg4Pd4
_chemical_formula_sum              "Hg4 Pd4"
_cell_length_a       6.84352
_cell_length_b       6.84352
_cell_length_c       5.35317
_cell_angle_alpha    76.6977
_cell_angle_beta     76.6977
_cell_angle_gamma    36.5535

_space_group_name_H-M_alt    "P 1"
_space_group_IT_number       1

loop_
  _space_group_symop_operation_xyz
  'x, y, z'

loop_
  _atom_site_type_symbol
  _atom_site_label
  _atom_site_symmetry_multiplicity
  _atom_site_fract_x
  _atom_site_fract_y
  _atom_site_fract_z
  _atom_site_occupancy
  Hg  Hg1       1.0  0.00000  0.00000  0.00000  1.0000
  Hg  Hg2       1.0  0.00000  0.00000  0.50000  1.0000
  Hg  Hg3       1.0  0.79496  0.79496  0.36005  1.0000
  Hg  Hg4       1.0  0.20504  0.20504  0.63996  1.0000
  Pd  Pd1       1.0  0.18412  0.18412  0.15637  1.0000
  Pd  Pd2       1.0  0.81588  0.81588  0.84363  1.0000
  Pd  Pd3       1.0  0.43021  0.43021  0.29990  1.0000
  Pd  Pd4       1.0  0.56979  0.56979  0.70010  1.0000
