data_image0
_chemical_formula_structural       Hg24Pd16
_chemical_formula_sum              "Hg24 Pd16"
_cell_length_a       10.3272
_cell_length_b       10.3272
_cell_length_c       10.3272
_cell_angle_alpha    116.588
_cell_angle_beta     116.588
_cell_angle_gamma    96.0183

_space_group_name_H-M_alt    "P 1"
_space_group_IT_number       1

loop_
  _space_group_symop_operation_xyz
  'x, y, z'

loop_
  _atom_site_type_symbol
  _atom_site_label
  _atom_site_symmetry_multiplicity
  _atom_site_fract_x
  _atom_site_fract_y
  _atom_site_fract_z
  _atom_site_occupancy
  Hg  Hg1       1.0  0.14773  0.64773  0.50000  1.0000
  Hg  Hg2       1.0  0.64773  0.14773  0.50000  1.0000
  Hg  Hg3       1.0  0.85227  0.35227  0.50000  1.0000
  Hg  Hg4       1.0  0.35227  0.85227  0.50000  1.0000
  Hg  Hg5       1.0  0.66862  0.16862  0.83724  1.0000
  Hg  Hg6       1.0  0.33138  0.83138  0.16276  1.0000
  Hg  Hg7       1.0  0.16862  0.33138  0.50000  1.0000
  Hg  Hg8       1.0  0.83138  0.66862  0.50000  1.0000
  Hg  Hg9       1.0  0.06714  0.93127  0.27092  1.0000
  Hg  Hg10      1.0  0.66035  0.79622  0.72908  1.0000
  Hg  Hg11      1.0  0.56714  0.29622  0.13587  1.0000
  Hg  Hg12      1.0  0.16035  0.43127  0.86413  1.0000
  Hg  Hg13      1.0  0.79622  0.06714  0.13587  1.0000
  Hg  Hg14      1.0  0.93127  0.66035  0.86413  1.0000
  Hg  Hg15      1.0  0.43127  0.56714  0.27092  1.0000
  Hg  Hg16      1.0  0.29622  0.16035  0.72908  1.0000
  Hg  Hg17      1.0  0.93286  0.06873  0.72908  1.0000
  Hg  Hg18      1.0  0.33965  0.20378  0.27092  1.0000
  Hg  Hg19      1.0  0.43286  0.70378  0.86413  1.0000
  Hg  Hg20      1.0  0.83965  0.56873  0.13587  1.0000
  Hg  Hg21      1.0  0.20378  0.93286  0.86413  1.0000
  Hg  Hg22      1.0  0.06873  0.33965  0.13587  1.0000
  Hg  Hg23      1.0  0.56873  0.43286  0.72908  1.0000
  Hg  Hg24      1.0  0.70378  0.83965  0.27092  1.0000
  Pd  Pd1       1.0  0.75000  0.75000  0.00000  1.0000
  Pd  Pd2       1.0  0.25000  0.25000  0.00000  1.0000
  Pd  Pd3       1.0  0.00000  0.00000  0.00000  1.0000
  Pd  Pd4       1.0  0.50000  0.50000  0.00000  1.0000
  Pd  Pd5       1.0  0.11620  0.61620  0.73240  1.0000
  Pd  Pd6       1.0  0.88380  0.38380  0.26760  1.0000
  Pd  Pd7       1.0  0.61620  0.88380  0.50000  1.0000
  Pd  Pd8       1.0  0.38380  0.11620  0.50000  1.0000
  Pd  Pd9       1.0  0.87859  0.37859  0.85606  1.0000
  Pd  Pd10      1.0  0.52252  0.02252  0.14394  1.0000
  Pd  Pd11      1.0  0.37859  0.52252  0.50000  1.0000
  Pd  Pd12      1.0  0.02252  0.87859  0.50000  1.0000
  Pd  Pd13      1.0  0.12141  0.62141  0.14394  1.0000
  Pd  Pd14      1.0  0.47748  0.97748  0.85606  1.0000
  Pd  Pd15      1.0  0.62141  0.47748  0.50000  1.0000
  Pd  Pd16      1.0  0.97748  0.12141  0.50000  1.0000
