data_image0
_chemical_formula_structural       Hg5Pd4
_chemical_formula_sum              "Hg5 Pd4"
_cell_length_a       4.62105
_cell_length_b       4.62105
_cell_length_c       8.76252
_cell_angle_alpha    90
_cell_angle_beta     90
_cell_angle_gamma    120

_space_group_name_H-M_alt    "P 1"
_space_group_IT_number       1

loop_
  _space_group_symop_operation_xyz
  'x, y, z'

loop_
  _atom_site_type_symbol
  _atom_site_label
  _atom_site_symmetry_multiplicity
  _atom_site_fract_x
  _atom_site_fract_y
  _atom_site_fract_z
  _atom_site_occupancy
  Hg  Hg1       1.0  0.33333  0.66667  0.11297  1.0000
  Hg  Hg2       1.0  0.66667  0.33333  0.88703  1.0000
  Hg  Hg3       1.0  0.33333  0.66667  0.44513  1.0000
  Hg  Hg4       1.0  0.66667  0.33333  0.55487  1.0000
  Hg  Hg5       1.0  0.00000  0.00000  0.00000  1.0000
  Pd  Pd1       1.0  0.33333  0.66667  0.77793  1.0000
  Pd  Pd2       1.0  0.66667  0.33333  0.22207  1.0000
  Pd  Pd3       1.0  0.00000  0.00000  0.33388  1.0000
  Pd  Pd4       1.0  0.00000  0.00000  0.66612  1.0000
