data_image0
_chemical_formula_structural       Pd19Hg20
_chemical_formula_sum              "Pd19 Hg20"
_cell_length_a       5.01817
_cell_length_b       5.01817
_cell_length_c       27.4194
_cell_angle_alpha    90
_cell_angle_beta     90
_cell_angle_gamma    120

_space_group_name_H-M_alt    "P 1"
_space_group_IT_number       1

loop_
  _space_group_symop_operation_xyz
  'x, y, z'

loop_
  _atom_site_type_symbol
  _atom_site_label
  _atom_site_symmetry_multiplicity
  _atom_site_fract_x
  _atom_site_fract_y
  _atom_site_fract_z
  _atom_site_occupancy
  Pd  Pd1       1.0  0.33333  0.66667  0.21690  1.0000
  Pd  Pd2       1.0  0.00000  0.00000  0.54917  1.0000
  Pd  Pd3       1.0  0.66667  0.33333  0.88140  1.0000
  Pd  Pd4       1.0  0.33333  0.66667  0.11860  1.0000
  Pd  Pd5       1.0  0.00000  0.00000  0.45083  1.0000
  Pd  Pd6       1.0  0.66667  0.33333  0.78310  1.0000
  Pd  Pd7       1.0  0.66667  0.33333  0.16845  1.0000
  Pd  Pd8       1.0  0.33333  0.66667  0.50003  1.0000
  Pd  Pd9       1.0  0.00000  0.00000  0.83167  1.0000
  Pd  Pd10      1.0  0.00000  0.00000  0.16833  1.0000
  Pd  Pd11      1.0  0.66667  0.33333  0.49998  1.0000
  Pd  Pd12      1.0  0.33333  0.66667  0.83155  1.0000
  Pd  Pd13      1.0  0.33333  0.66667  0.31964  1.0000
  Pd  Pd14      1.0  0.00000  0.00000  0.65273  1.0000
  Pd  Pd15      1.0  0.66667  0.33333  0.98415  1.0000
  Pd  Pd16      1.0  0.33333  0.66667  0.01585  1.0000
  Pd  Pd17      1.0  0.00000  0.00000  0.34727  1.0000
  Pd  Pd18      1.0  0.66667  0.33333  0.68036  1.0000
  Pd  Pd19      1.0  0.00000  0.00000  0.00000  1.0000
  Hg  Hg1       1.0  0.34069  0.17035  0.07901  1.0000
  Hg  Hg2       1.0  0.99981  0.49990  0.40862  1.0000
  Hg  Hg3       1.0  0.66622  0.83311  0.74134  1.0000
  Hg  Hg4       1.0  0.82966  0.65931  0.07901  1.0000
  Hg  Hg5       1.0  0.50010  0.00019  0.40862  1.0000
  Hg  Hg6       1.0  0.16689  0.33379  0.74134  1.0000
  Hg  Hg7       1.0  0.82966  0.17035  0.07901  1.0000
  Hg  Hg8       1.0  0.50010  0.49990  0.40862  1.0000
  Hg  Hg9       1.0  0.16689  0.83311  0.74134  1.0000
  Hg  Hg10      1.0  0.33378  0.16689  0.25866  1.0000
  Hg  Hg11      1.0  0.00019  0.50010  0.59138  1.0000
  Hg  Hg12      1.0  0.65931  0.82966  0.92099  1.0000
  Hg  Hg13      1.0  0.83311  0.66621  0.25866  1.0000
  Hg  Hg14      1.0  0.49990  0.99981  0.59138  1.0000
  Hg  Hg15      1.0  0.17035  0.34069  0.92099  1.0000
  Hg  Hg16      1.0  0.83311  0.16689  0.25866  1.0000
  Hg  Hg17      1.0  0.49990  0.50010  0.59138  1.0000
  Hg  Hg18      1.0  0.17035  0.82966  0.92099  1.0000
  Hg  Hg19      1.0  0.66667  0.33333  0.33380  1.0000
  Hg  Hg20      1.0  0.33333  0.66667  0.66621  1.0000
