data_image0
_chemical_formula_structural       Pd3Hg4
_chemical_formula_sum              "Pd3 Hg4"
_cell_length_a       10.7599
_cell_length_b       10.7599
_cell_length_c       10.7599
_cell_angle_alpha    162.257
_cell_angle_beta     162.257
_cell_angle_gamma    25.1948

_space_group_name_H-M_alt    "P 1"
_space_group_IT_number       1

loop_
  _space_group_symop_operation_xyz
  'x, y, z'

loop_
  _atom_site_type_symbol
  _atom_site_label
  _atom_site_symmetry_multiplicity
  _atom_site_fract_x
  _atom_site_fract_y
  _atom_site_fract_z
  _atom_site_occupancy
  Pd  Pd1       1.0  0.70745  0.70745  0.00000  1.0000
  Pd  Pd2       1.0  0.29255  0.29255  0.00000  1.0000
  Pd  Pd3       1.0  0.00000  0.00000  0.00000  1.0000
  Hg  Hg1       1.0  0.57033  0.57033  0.00000  1.0000
  Hg  Hg2       1.0  0.42967  0.42967  0.00000  1.0000
  Hg  Hg3       1.0  0.86518  0.86518  0.00000  1.0000
  Hg  Hg4       1.0  0.13483  0.13483  0.00000  1.0000
