data_image0
_chemical_formula_structural       Hg16Pd16
_chemical_formula_sum              "Hg16 Pd16"
_cell_length_a       5.40142
_cell_length_b       10.4275
_cell_length_c       11.1891
_cell_angle_alpha    66.5303
_cell_angle_beta     90
_cell_angle_gamma    90

_space_group_name_H-M_alt    "P 1"
_space_group_IT_number       1

loop_
  _space_group_symop_operation_xyz
  'x, y, z'

loop_
  _atom_site_type_symbol
  _atom_site_label
  _atom_site_symmetry_multiplicity
  _atom_site_fract_x
  _atom_site_fract_y
  _atom_site_fract_z
  _atom_site_occupancy
  Hg  Hg1       1.0  0.61899  0.35425  0.13122  1.0000
  Hg  Hg2       1.0  0.11899  0.14575  0.86878  1.0000
  Hg  Hg3       1.0  0.38101  0.64575  0.86878  1.0000
  Hg  Hg4       1.0  0.88101  0.85425  0.13122  1.0000
  Hg  Hg5       1.0  0.81203  0.47163  0.39115  1.0000
  Hg  Hg6       1.0  0.31203  0.02837  0.60885  1.0000
  Hg  Hg7       1.0  0.18797  0.52837  0.60885  1.0000
  Hg  Hg8       1.0  0.68797  0.97163  0.39115  1.0000
  Hg  Hg9       1.0  0.58900  0.31761  0.65732  1.0000
  Hg  Hg10      1.0  0.08900  0.18239  0.34268  1.0000
  Hg  Hg11      1.0  0.41100  0.68239  0.34268  1.0000
  Hg  Hg12      1.0  0.91100  0.81761  0.65732  1.0000
  Hg  Hg13      1.0  0.85542  0.45896  0.85630  1.0000
  Hg  Hg14      1.0  0.35542  0.04104  0.14370  1.0000
  Hg  Hg15      1.0  0.14458  0.54104  0.14370  1.0000
  Hg  Hg16      1.0  0.64458  0.95896  0.85630  1.0000
  Pd  Pd1       1.0  0.13375  0.30186  0.06875  1.0000
  Pd  Pd2       1.0  0.63375  0.19814  0.93125  1.0000
  Pd  Pd3       1.0  0.86625  0.69814  0.93125  1.0000
  Pd  Pd4       1.0  0.36625  0.80186  0.06875  1.0000
  Pd  Pd5       1.0  0.87180  0.14648  0.08936  1.0000
  Pd  Pd6       1.0  0.37180  0.35352  0.91064  1.0000
  Pd  Pd7       1.0  0.12820  0.85352  0.91064  1.0000
  Pd  Pd8       1.0  0.62820  0.64648  0.08936  1.0000
  Pd  Pd9       1.0  0.57479  0.23010  0.41061  1.0000
  Pd  Pd10      1.0  0.07479  0.26990  0.58939  1.0000
  Pd  Pd11      1.0  0.42521  0.76990  0.58939  1.0000
  Pd  Pd12      1.0  0.92521  0.73010  0.41061  1.0000
  Pd  Pd13      1.0  0.80837  0.13333  0.56907  1.0000
  Pd  Pd14      1.0  0.30837  0.36667  0.43094  1.0000
  Pd  Pd15      1.0  0.19163  0.86667  0.43094  1.0000
  Pd  Pd16      1.0  0.69163  0.63333  0.56907  1.0000
