data_image0
_chemical_formula_structural       Pd4Hg8
_chemical_formula_sum              "Pd4 Hg8"
_cell_length_a       9.83402
_cell_length_b       9.83402
_cell_length_c       9.83402
_cell_angle_alpha    135.423
_cell_angle_beta     135.423
_cell_angle_gamma    64.874

_space_group_name_H-M_alt    "P 1"
_space_group_IT_number       1

loop_
  _space_group_symop_operation_xyz
  'x, y, z'

loop_
  _atom_site_type_symbol
  _atom_site_label
  _atom_site_symmetry_multiplicity
  _atom_site_fract_x
  _atom_site_fract_y
  _atom_site_fract_z
  _atom_site_occupancy
  Pd  Pd1       1.0  0.25000  0.75000  0.50000  1.0000
  Pd  Pd2       1.0  0.50000  0.50000  0.00000  1.0000
  Pd  Pd3       1.0  0.75000  0.25000  0.50000  1.0000
  Pd  Pd4       1.0  0.00000  0.00000  0.00000  1.0000
  Hg  Hg1       1.0  0.82149  0.41035  0.90168  1.0000
  Hg  Hg2       1.0  0.16035  0.75867  0.08887  1.0000
  Hg  Hg3       1.0  0.66981  0.07149  0.91114  1.0000
  Hg  Hg4       1.0  0.50867  0.91981  0.09832  1.0000
  Hg  Hg5       1.0  0.24133  0.33019  0.40168  1.0000
  Hg  Hg6       1.0  0.08019  0.17851  0.58887  1.0000
  Hg  Hg7       1.0  0.58965  0.49133  0.41113  1.0000
  Hg  Hg8       1.0  0.92851  0.83965  0.59832  1.0000
