data_image0
_chemical_formula_structural       Pd2N12
_chemical_formula_sum              "Pd2 N12"
_cell_length_a       9.23281
_cell_length_b       9.23281
_cell_length_c       26.0657
_cell_angle_alpha    89.7282
_cell_angle_beta     89.7282
_cell_angle_gamma    127.09

_space_group_name_H-M_alt    "P 1"
_space_group_IT_number       1

loop_
  _space_group_symop_operation_xyz
  'x, y, z'

loop_
  _atom_site_type_symbol
  _atom_site_label
  _atom_site_symmetry_multiplicity
  _atom_site_fract_x
  _atom_site_fract_y
  _atom_site_fract_z
  _atom_site_occupancy
  Pd  Pd1       1.0  0.00000  0.50000  0.00000  1.0000
  Pd  Pd2       1.0  0.50000  0.00000  0.50000  1.0000
  N   N1        1.0  0.00469  0.13269  0.25010  1.0000
  N   N2        1.0  0.99531  0.86731  0.74991  1.0000
  N   N3        1.0  0.67771  0.28442  0.99749  1.0000
  N   N4        1.0  0.86731  0.99531  0.24990  1.0000
  N   N5        1.0  0.32229  0.71558  0.00251  1.0000
  N   N6        1.0  0.13269  0.00469  0.75009  1.0000
  N   N7        1.0  0.74835  0.49855  0.37085  1.0000
  N   N8        1.0  0.71558  0.32229  0.50251  1.0000
  N   N9        1.0  0.25165  0.50145  0.62914  1.0000
  N   N10       1.0  0.28442  0.67771  0.49749  1.0000
  N   N11       1.0  0.50145  0.25165  0.12915  1.0000
  N   N12       1.0  0.49856  0.74835  0.87085  1.0000
