data_image0
_chemical_formula_structural       Pd16N24
_chemical_formula_sum              "Pd16 N24"
_cell_length_a       11.6159
_cell_length_b       4.88649
_cell_length_c       20.7192
_cell_angle_alpha    87.9065
_cell_angle_beta     90
_cell_angle_gamma    90

_space_group_name_H-M_alt    "P 1"
_space_group_IT_number       1

loop_
  _space_group_symop_operation_xyz
  'x, y, z'

loop_
  _atom_site_type_symbol
  _atom_site_label
  _atom_site_symmetry_multiplicity
  _atom_site_fract_x
  _atom_site_fract_y
  _atom_site_fract_z
  _atom_site_occupancy
  Pd  Pd1       1.0  0.31363  0.74479  0.90119  1.0000
  Pd  Pd2       1.0  0.96619  0.57934  0.31861  1.0000
  Pd  Pd3       1.0  0.18637  0.74479  0.40119  1.0000
  Pd  Pd4       1.0  0.46619  0.42066  0.18139  1.0000
  Pd  Pd5       1.0  0.03381  0.42066  0.68139  1.0000
  Pd  Pd6       1.0  0.81363  0.25521  0.59881  1.0000
  Pd  Pd7       1.0  0.78139  0.45865  0.74137  1.0000
  Pd  Pd8       1.0  0.28139  0.54135  0.75863  1.0000
  Pd  Pd9       1.0  0.53381  0.57934  0.81861  1.0000
  Pd  Pd10      1.0  0.21861  0.54135  0.25863  1.0000
  Pd  Pd11      1.0  0.90101  0.05264  0.01034  1.0000
  Pd  Pd12      1.0  0.40101  0.94736  0.48966  1.0000
  Pd  Pd13      1.0  0.09899  0.94736  0.98966  1.0000
  Pd  Pd14      1.0  0.59899  0.05264  0.51034  1.0000
  Pd  Pd15      1.0  0.68637  0.25521  0.09881  1.0000
  Pd  Pd16      1.0  0.71861  0.45865  0.24137  1.0000
  N   N1        1.0  0.70255  0.32160  0.66661  1.0000
  N   N2        1.0  0.20294  0.43696  0.67895  1.0000
  N   N3        1.0  0.76366  0.11891  0.51481  1.0000
  N   N4        1.0  0.79745  0.32160  0.16661  1.0000
  N   N5        1.0  0.73634  0.11891  0.01481  1.0000
  N   N6        1.0  0.52001  0.30131  0.09765  1.0000
  N   N7        1.0  0.26366  0.88109  0.98519  1.0000
  N   N8        1.0  0.05415  0.48785  0.24336  1.0000
  N   N9        1.0  0.47999  0.69869  0.90235  1.0000
  N   N10       1.0  0.44585  0.48785  0.74336  1.0000
  N   N11       1.0  0.97999  0.30131  0.59765  1.0000
  N   N12       1.0  0.29745  0.67840  0.33339  1.0000
  N   N13       1.0  0.79706  0.56304  0.32105  1.0000
  N   N14       1.0  0.94585  0.51215  0.75664  1.0000
  N   N15       1.0  0.03132  0.08889  0.06966  1.0000
  N   N16       1.0  0.53132  0.91111  0.43034  1.0000
  N   N17       1.0  0.96868  0.91111  0.93034  1.0000
  N   N18       1.0  0.70294  0.56304  0.82105  1.0000
  N   N19       1.0  0.46868  0.08889  0.56966  1.0000
  N   N20       1.0  0.29706  0.43696  0.17895  1.0000
  N   N21       1.0  0.23634  0.88109  0.48519  1.0000
  N   N22       1.0  0.02001  0.69868  0.40235  1.0000
  N   N23       1.0  0.20255  0.67840  0.83339  1.0000
  N   N24       1.0  0.55415  0.51215  0.25664  1.0000
