data_image0
_chemical_formula_structural       Pd10Hg18
_chemical_formula_sum              "Pd10 Hg18"
_cell_length_a       11.0471
_cell_length_b       11.0471
_cell_length_c       11.0471
_cell_angle_alpha    82.5739
_cell_angle_beta     82.5739
_cell_angle_gamma    82.5739

_space_group_name_H-M_alt    "P 1"
_space_group_IT_number       1

loop_
  _space_group_symop_operation_xyz
  'x, y, z'

loop_
  _atom_site_type_symbol
  _atom_site_label
  _atom_site_symmetry_multiplicity
  _atom_site_fract_x
  _atom_site_fract_y
  _atom_site_fract_z
  _atom_site_occupancy
  Pd  Pd1       1.0  0.65173  0.65173  0.65173  1.0000
  Pd  Pd2       1.0  0.84827  0.84827  0.84827  1.0000
  Pd  Pd3       1.0  0.34827  0.34827  0.34827  1.0000
  Pd  Pd4       1.0  0.15173  0.15173  0.15173  1.0000
  Pd  Pd5       1.0  0.75000  0.08011  0.41989  1.0000
  Pd  Pd6       1.0  0.41989  0.75000  0.08011  1.0000
  Pd  Pd7       1.0  0.08011  0.41989  0.75000  1.0000
  Pd  Pd8       1.0  0.25000  0.91989  0.58011  1.0000
  Pd  Pd9       1.0  0.58011  0.25000  0.91989  1.0000
  Pd  Pd10      1.0  0.91989  0.58011  0.25000  1.0000
  Hg  Hg1       1.0  0.08406  0.92014  0.27128  1.0000
  Hg  Hg2       1.0  0.27128  0.08406  0.92014  1.0000
  Hg  Hg3       1.0  0.92014  0.27128  0.08406  1.0000
  Hg  Hg4       1.0  0.41594  0.22872  0.57986  1.0000
  Hg  Hg5       1.0  0.57986  0.41594  0.22872  1.0000
  Hg  Hg6       1.0  0.22872  0.57986  0.41594  1.0000
  Hg  Hg7       1.0  0.91594  0.07986  0.72872  1.0000
  Hg  Hg8       1.0  0.72872  0.91594  0.07986  1.0000
  Hg  Hg9       1.0  0.07986  0.72872  0.91594  1.0000
  Hg  Hg10      1.0  0.58406  0.77128  0.42014  1.0000
  Hg  Hg11      1.0  0.90693  0.75000  0.59307  1.0000
  Hg  Hg12      1.0  0.75000  0.59307  0.90693  1.0000
  Hg  Hg13      1.0  0.59307  0.90693  0.75000  1.0000
  Hg  Hg14      1.0  0.09307  0.25000  0.40693  1.0000
  Hg  Hg15      1.0  0.25000  0.40693  0.09307  1.0000
  Hg  Hg16      1.0  0.40693  0.09307  0.25000  1.0000
  Hg  Hg17      1.0  0.77128  0.42014  0.58406  1.0000
  Hg  Hg18      1.0  0.42014  0.58406  0.77128  1.0000
