data_image0
_chemical_formula_structural       Hg4Pd4
_chemical_formula_sum              "Hg4 Pd4"
_cell_length_a       5.32614
_cell_length_b       5.32614
_cell_length_c       5.28213
_cell_angle_alpha    82.3612
_cell_angle_beta     82.3612
_cell_angle_gamma    103.638

_space_group_name_H-M_alt    "P 1"
_space_group_IT_number       1

loop_
  _space_group_symop_operation_xyz
  'x, y, z'

loop_
  _atom_site_type_symbol
  _atom_site_label
  _atom_site_symmetry_multiplicity
  _atom_site_fract_x
  _atom_site_fract_y
  _atom_site_fract_z
  _atom_site_occupancy
  Hg  Hg1       1.0  0.91392  0.91392  0.97919  1.0000
  Hg  Hg2       1.0  0.41441  0.41441  0.03374  1.0000
  Hg  Hg3       1.0  0.82600  0.25572  0.40749  1.0000
  Hg  Hg4       1.0  0.25572  0.82600  0.40749  1.0000
  Pd  Pd1       1.0  0.70607  0.70607  0.54204  1.0000
  Pd  Pd2       1.0  0.30407  0.30407  0.56869  1.0000
  Pd  Pd3       1.0  0.45147  0.95182  0.85291  1.0000
  Pd  Pd4       1.0  0.95182  0.45147  0.85291  1.0000
