data_image0
_chemical_formula_structural       Pd3Hg12
_chemical_formula_sum              "Pd3 Hg12"
_cell_length_a       8.98429
_cell_length_b       6.10886
_cell_length_c       6.74708
_cell_angle_alpha    89.704
_cell_angle_beta     90
_cell_angle_gamma    90

_space_group_name_H-M_alt    "P 1"
_space_group_IT_number       1

loop_
  _space_group_symop_operation_xyz
  'x, y, z'

loop_
  _atom_site_type_symbol
  _atom_site_label
  _atom_site_symmetry_multiplicity
  _atom_site_fract_x
  _atom_site_fract_y
  _atom_site_fract_z
  _atom_site_occupancy
  Pd  Pd1       1.0  0.50000  0.54649  0.88071  1.0000
  Pd  Pd2       1.0  0.00000  0.04483  0.60974  1.0000
  Pd  Pd3       1.0  0.00000  0.45515  0.11491  1.0000
  Hg  Hg1       1.0  0.50000  0.35535  0.52000  1.0000
  Hg  Hg2       1.0  0.50000  0.13038  0.03352  1.0000
  Hg  Hg3       1.0  0.00000  0.62784  0.48266  1.0000
  Hg  Hg4       1.0  0.00000  0.87302  0.98322  1.0000
  Hg  Hg5       1.0  0.31486  0.83178  0.67468  1.0000
  Hg  Hg6       1.0  0.68611  0.67209  0.18263  1.0000
  Hg  Hg7       1.0  0.80673  0.17094  0.31758  1.0000
  Hg  Hg8       1.0  0.19030  0.32845  0.82003  1.0000
  Hg  Hg9       1.0  0.19328  0.17094  0.31758  1.0000
  Hg  Hg10      1.0  0.80970  0.32845  0.82003  1.0000
  Hg  Hg11      1.0  0.68514  0.83178  0.67468  1.0000
  Hg  Hg12      1.0  0.31389  0.67209  0.18263  1.0000
