data_image0
_chemical_formula_structural       Pd2N46
_chemical_formula_sum              "Pd2 N46"
_cell_length_a       6.32283
_cell_length_b       6.32283
_cell_length_c       6.32283
_cell_angle_alpha    90
_cell_angle_beta     90
_cell_angle_gamma    90

_space_group_name_H-M_alt    "P 1"
_space_group_IT_number       1

loop_
  _space_group_symop_operation_xyz
  'x, y, z'

loop_
  _atom_site_type_symbol
  _atom_site_label
  _atom_site_symmetry_multiplicity
  _atom_site_fract_x
  _atom_site_fract_y
  _atom_site_fract_z
  _atom_site_occupancy
  Pd  Pd1       1.0  0.50000  0.50000  0.50000  1.0000
  Pd  Pd2       1.0  0.00000  0.00000  0.00000  1.0000
  N   N1        1.0  0.00000  0.50000  0.75000  1.0000
  N   N2        1.0  0.50000  0.25000  0.00000  1.0000
  N   N3        1.0  0.75000  0.00000  0.50000  1.0000
  N   N4        1.0  0.00000  0.50000  0.25000  1.0000
  N   N5        1.0  0.50000  0.75000  0.00000  1.0000
  N   N6        1.0  0.25000  0.00000  0.50000  1.0000
  N   N7        1.0  0.68485  0.31515  0.68485  1.0000
  N   N8        1.0  0.31515  0.68485  0.31515  1.0000
  N   N9        1.0  0.68485  0.68485  0.31515  1.0000
  N   N10       1.0  0.31515  0.31515  0.68485  1.0000
  N   N11       1.0  0.31515  0.68485  0.68485  1.0000
  N   N12       1.0  0.68485  0.31515  0.31515  1.0000
  N   N13       1.0  0.31515  0.31515  0.31515  1.0000
  N   N14       1.0  0.68485  0.68485  0.68485  1.0000
  N   N15       1.0  0.18485  0.18485  0.81515  1.0000
  N   N16       1.0  0.81515  0.81515  0.18485  1.0000
  N   N17       1.0  0.18485  0.81515  0.18485  1.0000
  N   N18       1.0  0.81515  0.18485  0.81515  1.0000
  N   N19       1.0  0.81515  0.18485  0.18485  1.0000
  N   N20       1.0  0.18485  0.81515  0.81515  1.0000
  N   N21       1.0  0.81515  0.81515  0.81515  1.0000
  N   N22       1.0  0.18485  0.18485  0.18485  1.0000
  N   N23       1.0  0.61670  0.19027  0.50000  1.0000
  N   N24       1.0  0.80973  0.50000  0.61670  1.0000
  N   N25       1.0  0.50000  0.38330  0.80973  1.0000
  N   N26       1.0  0.38330  0.80973  0.50000  1.0000
  N   N27       1.0  0.19027  0.50000  0.38330  1.0000
  N   N28       1.0  0.50000  0.61670  0.19027  1.0000
  N   N29       1.0  0.61670  0.80973  0.50000  1.0000
  N   N30       1.0  0.80973  0.50000  0.38330  1.0000
  N   N31       1.0  0.38330  0.19027  0.50000  1.0000
  N   N32       1.0  0.19027  0.50000  0.61670  1.0000
  N   N33       1.0  0.50000  0.61670  0.80973  1.0000
  N   N34       1.0  0.50000  0.38330  0.19027  1.0000
  N   N35       1.0  0.11670  0.00000  0.69027  1.0000
  N   N36       1.0  0.30974  0.11670  0.00000  1.0000
  N   N37       1.0  0.00000  0.30974  0.88330  1.0000
  N   N38       1.0  0.88330  0.00000  0.30974  1.0000
  N   N39       1.0  0.69027  0.88330  0.00000  1.0000
  N   N40       1.0  0.00000  0.69027  0.11670  1.0000
  N   N41       1.0  0.11670  0.00000  0.30974  1.0000
  N   N42       1.0  0.30974  0.88330  0.00000  1.0000
  N   N43       1.0  0.88330  0.00000  0.69027  1.0000
  N   N44       1.0  0.69027  0.11670  0.00000  1.0000
  N   N45       1.0  0.00000  0.30974  0.11670  1.0000
  N   N46       1.0  0.00000  0.69027  0.88330  1.0000
