data_image0
_chemical_formula_structural       Pd2N20
_chemical_formula_sum              "Pd2 N20"
_cell_length_a       4.72234
_cell_length_b       4.72234
_cell_length_c       7.89831
_cell_angle_alpha    90
_cell_angle_beta     90
_cell_angle_gamma    126.847

_space_group_name_H-M_alt    "P 1"
_space_group_IT_number       1

loop_
  _space_group_symop_operation_xyz
  'x, y, z'

loop_
  _atom_site_type_symbol
  _atom_site_label
  _atom_site_symmetry_multiplicity
  _atom_site_fract_x
  _atom_site_fract_y
  _atom_site_fract_z
  _atom_site_occupancy
  Pd  Pd1       1.0  0.18677  0.81324  0.50651  1.0000
  Pd  Pd2       1.0  0.81324  0.18676  0.00651  1.0000
  N   N1        1.0  0.77235  0.72909  0.31601  1.0000
  N   N2        1.0  0.22765  0.27091  0.81601  1.0000
  N   N3        1.0  0.61089  0.38911  0.60550  1.0000
  N   N4        1.0  0.38911  0.61090  0.10550  1.0000
  N   N5        1.0  0.93407  0.06593  0.55776  1.0000
  N   N6        1.0  0.06593  0.93407  0.05776  1.0000
  N   N7        1.0  0.59221  0.40779  0.78320  1.0000
  N   N8        1.0  0.40779  0.59221  0.28320  1.0000
  N   N9        1.0  0.18705  0.81294  0.92981  1.0000
  N   N10       1.0  0.81295  0.18705  0.42981  1.0000
  N   N11       1.0  0.09174  0.90826  0.77977  1.0000
  N   N12       1.0  0.90826  0.09174  0.27977  1.0000
  N   N13       1.0  0.44875  0.55125  0.56465  1.0000
  N   N14       1.0  0.55125  0.44875  0.06465  1.0000
  N   N15       1.0  0.62144  0.86863  0.66509  1.0000
  N   N16       1.0  0.37856  0.13137  0.16509  1.0000
  N   N17       1.0  0.13137  0.37856  0.66509  1.0000
  N   N18       1.0  0.86863  0.62144  0.16509  1.0000
  N   N19       1.0  0.72909  0.77235  0.81601  1.0000
  N   N20       1.0  0.27091  0.22765  0.31601  1.0000
