data_image0
_chemical_formula_structural       Pd12Hg26
_chemical_formula_sum              "Pd12 Hg26"
_cell_length_a       12.0342
_cell_length_b       12.0342
_cell_length_c       12.0342
_cell_angle_alpha    111.748
_cell_angle_beta     111.748
_cell_angle_gamma    111.748

_space_group_name_H-M_alt    "P 1"
_space_group_IT_number       1

loop_
  _space_group_symop_operation_xyz
  'x, y, z'

loop_
  _atom_site_type_symbol
  _atom_site_label
  _atom_site_symmetry_multiplicity
  _atom_site_fract_x
  _atom_site_fract_y
  _atom_site_fract_z
  _atom_site_occupancy
  Pd  Pd1       1.0  0.82080  0.91032  0.33077  1.0000
  Pd  Pd2       1.0  0.91032  0.33077  0.82080  1.0000
  Pd  Pd3       1.0  0.33077  0.82080  0.91032  1.0000
  Pd  Pd4       1.0  0.17920  0.08968  0.66923  1.0000
  Pd  Pd5       1.0  0.08968  0.66923  0.17920  1.0000
  Pd  Pd6       1.0  0.66923  0.17920  0.08968  1.0000
  Pd  Pd7       1.0  0.83444  0.73041  0.50254  1.0000
  Pd  Pd8       1.0  0.73041  0.50254  0.83444  1.0000
  Pd  Pd9       1.0  0.50254  0.83444  0.73041  1.0000
  Pd  Pd10      1.0  0.16556  0.26959  0.49746  1.0000
  Pd  Pd11      1.0  0.26959  0.49746  0.16556  1.0000
  Pd  Pd12      1.0  0.49746  0.16556  0.26959  1.0000
  Hg  Hg1       1.0  0.36870  0.36870  0.36870  1.0000
  Hg  Hg2       1.0  0.63130  0.63130  0.63130  1.0000
  Hg  Hg3       1.0  0.96382  0.00317  0.19631  1.0000
  Hg  Hg4       1.0  0.00317  0.19631  0.96382  1.0000
  Hg  Hg5       1.0  0.19631  0.96382  0.00317  1.0000
  Hg  Hg6       1.0  0.03618  0.99683  0.80369  1.0000
  Hg  Hg7       1.0  0.99683  0.80369  0.03618  1.0000
  Hg  Hg8       1.0  0.80369  0.03618  0.99683  1.0000
  Hg  Hg9       1.0  0.37957  0.00811  0.79521  1.0000
  Hg  Hg10      1.0  0.00810  0.79521  0.37957  1.0000
  Hg  Hg11      1.0  0.79521  0.37957  0.00811  1.0000
  Hg  Hg12      1.0  0.62043  0.99190  0.20479  1.0000
  Hg  Hg13      1.0  0.99189  0.20479  0.62043  1.0000
  Hg  Hg14      1.0  0.20479  0.62043  0.99189  1.0000
  Hg  Hg15      1.0  0.40325  0.22623  0.61239  1.0000
  Hg  Hg16      1.0  0.22623  0.61240  0.40325  1.0000
  Hg  Hg17      1.0  0.61240  0.40325  0.22623  1.0000
  Hg  Hg18      1.0  0.59675  0.77377  0.38760  1.0000
  Hg  Hg19      1.0  0.77377  0.38761  0.59675  1.0000
  Hg  Hg20      1.0  0.38760  0.59675  0.77377  1.0000
  Hg  Hg21      1.0  0.60357  0.61150  0.00003  1.0000
  Hg  Hg22      1.0  0.61150  0.00003  0.60357  1.0000
  Hg  Hg23      1.0  0.00003  0.60357  0.61150  1.0000
  Hg  Hg24      1.0  0.39643  0.38850  0.99997  1.0000
  Hg  Hg25      1.0  0.38850  0.99997  0.39643  1.0000
  Hg  Hg26      1.0  0.99997  0.39643  0.38850  1.0000
