data_image0
_chemical_formula_structural       Hg6Pd2
_chemical_formula_sum              "Hg6 Pd2"
_cell_length_a       7.49322
_cell_length_b       7.49322
_cell_length_c       21.93
_cell_angle_alpha    90
_cell_angle_beta     90
_cell_angle_gamma    120

_space_group_name_H-M_alt    "P 1"
_space_group_IT_number       1

loop_
  _space_group_symop_operation_xyz
  'x, y, z'

loop_
  _atom_site_type_symbol
  _atom_site_label
  _atom_site_symmetry_multiplicity
  _atom_site_fract_x
  _atom_site_fract_y
  _atom_site_fract_z
  _atom_site_occupancy
  Hg  Hg1       1.0  0.33333  0.66667  0.53496  1.0000
  Hg  Hg2       1.0  0.66667  0.33333  0.46504  1.0000
  Hg  Hg3       1.0  0.33333  0.66667  0.74666  1.0000
  Hg  Hg4       1.0  0.66667  0.33333  0.25333  1.0000
  Hg  Hg5       1.0  0.66667  0.33333  0.81475  1.0000
  Hg  Hg6       1.0  0.33333  0.66667  0.18525  1.0000
  Pd  Pd1       1.0  0.66667  0.33333  0.94728  1.0000
  Pd  Pd2       1.0  0.33333  0.66667  0.05272  1.0000
