data_image0
_chemical_formula_structural       Pd8N32
_chemical_formula_sum              "Pd8 N32"
_cell_length_a       8.3452
_cell_length_b       8.3452
_cell_length_c       8.14712
_cell_angle_alpha    90
_cell_angle_beta     90
_cell_angle_gamma    90

_space_group_name_H-M_alt    "P 1"
_space_group_IT_number       1

loop_
  _space_group_symop_operation_xyz
  'x, y, z'

loop_
  _atom_site_type_symbol
  _atom_site_label
  _atom_site_symmetry_multiplicity
  _atom_site_fract_x
  _atom_site_fract_y
  _atom_site_fract_z
  _atom_site_occupancy
  Pd  Pd1       1.0  0.31967  0.18281  0.76986  1.0000
  Pd  Pd2       1.0  0.68032  0.81719  0.23014  1.0000
  Pd  Pd3       1.0  0.31967  0.18281  0.23014  1.0000
  Pd  Pd4       1.0  0.81719  0.31967  0.73014  1.0000
  Pd  Pd5       1.0  0.68032  0.81719  0.76986  1.0000
  Pd  Pd6       1.0  0.18281  0.68032  0.73014  1.0000
  Pd  Pd7       1.0  0.18281  0.68032  0.26986  1.0000
  Pd  Pd8       1.0  0.81719  0.31967  0.26986  1.0000
  N   N1        1.0  0.67274  0.29277  0.50000  1.0000
  N   N2        1.0  0.44049  0.71134  0.80541  1.0000
  N   N3        1.0  0.06436  0.20319  0.21386  1.0000
  N   N4        1.0  0.55951  0.28866  0.19459  1.0000
  N   N5        1.0  0.79681  0.06436  0.28615  1.0000
  N   N6        1.0  0.28866  0.44049  0.69459  1.0000
  N   N7        1.0  0.50000  0.00000  0.70338  1.0000
  N   N8        1.0  0.20319  0.93564  0.71386  1.0000
  N   N9        1.0  0.66530  0.96034  0.00000  1.0000
  N   N10       1.0  0.06436  0.20319  0.78614  1.0000
  N   N11       1.0  0.00000  0.50000  0.79662  1.0000
  N   N12       1.0  0.93564  0.79681  0.78614  1.0000
  N   N13       1.0  0.20319  0.93564  0.28615  1.0000
  N   N14       1.0  0.00000  0.50000  0.20338  1.0000
  N   N15       1.0  0.33470  0.03966  0.00000  1.0000
  N   N16       1.0  0.71134  0.55951  0.69459  1.0000
  N   N17       1.0  0.79681  0.06436  0.71386  1.0000
  N   N18       1.0  0.55951  0.28866  0.80541  1.0000
  N   N19       1.0  0.18188  0.69407  0.00000  1.0000
  N   N20       1.0  0.96034  0.33470  0.50000  1.0000
  N   N21       1.0  0.70723  0.67274  0.00000  1.0000
  N   N22       1.0  0.03966  0.66530  0.50000  1.0000
  N   N23       1.0  0.30593  0.18188  0.50000  1.0000
  N   N24       1.0  0.93564  0.79681  0.21386  1.0000
  N   N25       1.0  0.81812  0.30593  0.00000  1.0000
  N   N26       1.0  0.28866  0.44049  0.30541  1.0000
  N   N27       1.0  0.29277  0.32726  0.00000  1.0000
  N   N28       1.0  0.50000  0.00000  0.29662  1.0000
  N   N29       1.0  0.71134  0.55951  0.30541  1.0000
  N   N30       1.0  0.69407  0.81812  0.50000  1.0000
  N   N31       1.0  0.44049  0.71134  0.19459  1.0000
  N   N32       1.0  0.32726  0.70723  0.50000  1.0000
