data_image0
_chemical_formula_structural       Pd4N16
_chemical_formula_sum              "Pd4 N16"
_cell_length_a       5.38847
_cell_length_b       5.38847
_cell_length_c       3.08294
_cell_angle_alpha    90
_cell_angle_beta     90
_cell_angle_gamma    90

_space_group_name_H-M_alt    "P 1"
_space_group_IT_number       1

loop_
  _space_group_symop_operation_xyz
  'x, y, z'

loop_
  _atom_site_type_symbol
  _atom_site_label
  _atom_site_symmetry_multiplicity
  _atom_site_fract_x
  _atom_site_fract_y
  _atom_site_fract_z
  _atom_site_occupancy
  Pd  Pd1       1.0  0.18396  0.68395  0.00000  1.0000
  Pd  Pd2       1.0  0.68395  0.81605  0.00000  1.0000
  Pd  Pd3       1.0  0.31605  0.18396  0.00000  1.0000
  Pd  Pd4       1.0  0.81605  0.31605  0.00000  1.0000
  N   N1        1.0  0.32648  0.46090  0.50000  1.0000
  N   N2        1.0  0.67352  0.53910  0.50000  1.0000
  N   N3        1.0  0.53910  0.32648  0.50000  1.0000
  N   N4        1.0  0.46090  0.67352  0.50000  1.0000
  N   N5        1.0  0.00000  0.00000  0.20583  1.0000
  N   N6        1.0  0.50000  0.50000  0.79417  1.0000
  N   N7        1.0  0.00000  0.00000  0.79417  1.0000
  N   N8        1.0  0.50000  0.50000  0.20583  1.0000
  N   N9        1.0  0.58887  0.08887  0.50000  1.0000
  N   N10       1.0  0.08887  0.41113  0.50000  1.0000
  N   N11       1.0  0.91113  0.58887  0.50000  1.0000
  N   N12       1.0  0.41113  0.91113  0.50000  1.0000
  N   N13       1.0  0.03910  0.17352  0.50000  1.0000
  N   N14       1.0  0.17352  0.96090  0.50000  1.0000
  N   N15       1.0  0.82648  0.03910  0.50000  1.0000
  N   N16       1.0  0.96090  0.82648  0.50000  1.0000
