data_image0
_chemical_formula_structural       Pd16N28
_chemical_formula_sum              "Pd16 N28"
_cell_length_a       10.4386
_cell_length_b       3.06934
_cell_length_c       11.4385
_cell_angle_alpha    81.2914
_cell_angle_beta     90
_cell_angle_gamma    90

_space_group_name_H-M_alt    "P 1"
_space_group_IT_number       1

loop_
  _space_group_symop_operation_xyz
  'x, y, z'

loop_
  _atom_site_type_symbol
  _atom_site_label
  _atom_site_symmetry_multiplicity
  _atom_site_fract_x
  _atom_site_fract_y
  _atom_site_fract_z
  _atom_site_occupancy
  Pd  Pd1       1.0  0.51483  0.30263  0.39213  1.0000
  Pd  Pd2       1.0  0.98517  0.30263  0.89213  1.0000
  Pd  Pd3       1.0  0.48517  0.69737  0.60787  1.0000
  Pd  Pd4       1.0  0.01483  0.69737  0.10787  1.0000
  Pd  Pd5       1.0  0.53951  0.12207  0.11802  1.0000
  Pd  Pd6       1.0  0.96049  0.12207  0.61802  1.0000
  Pd  Pd7       1.0  0.46048  0.87793  0.88198  1.0000
  Pd  Pd8       1.0  0.03951  0.87793  0.38198  1.0000
  Pd  Pd9       1.0  0.30483  0.86591  0.28899  1.0000
  Pd  Pd10      1.0  0.19517  0.86591  0.78899  1.0000
  Pd  Pd11      1.0  0.69517  0.13409  0.71101  1.0000
  Pd  Pd12      1.0  0.80483  0.13409  0.21101  1.0000
  Pd  Pd13      1.0  0.26277  0.26297  0.50644  1.0000
  Pd  Pd14      1.0  0.23724  0.26297  0.00644  1.0000
  Pd  Pd15      1.0  0.73723  0.73703  0.49356  1.0000
  Pd  Pd16      1.0  0.76277  0.73703  0.99356  1.0000
  N   N1        1.0  0.14088  0.16489  0.17408  1.0000
  N   N2        1.0  0.35912  0.16489  0.67407  1.0000
  N   N3        1.0  0.85912  0.83511  0.82593  1.0000
  N   N4        1.0  0.64088  0.83511  0.32593  1.0000
  N   N5        1.0  0.38877  0.74908  0.04641  1.0000
  N   N6        1.0  0.11123  0.74908  0.54641  1.0000
  N   N7        1.0  0.61123  0.25092  0.95359  1.0000
  N   N8        1.0  0.88877  0.25092  0.45359  1.0000
  N   N9        1.0  0.41624  0.40809  0.22718  1.0000
  N   N10       1.0  0.08377  0.40809  0.72718  1.0000
  N   N11       1.0  0.58376  0.59191  0.77282  1.0000
  N   N12       1.0  0.91624  0.59191  0.27282  1.0000
  N   N13       1.0  0.17120  0.37447  0.34659  1.0000
  N   N14       1.0  0.32880  0.37447  0.84659  1.0000
  N   N15       1.0  0.82880  0.62553  0.65341  1.0000
  N   N16       1.0  0.67120  0.62553  0.15341  1.0000
  N   N17       1.0  0.39505  0.58208  0.13787  1.0000
  N   N18       1.0  0.10495  0.58208  0.63787  1.0000
  N   N19       1.0  0.60495  0.41792  0.86213  1.0000
  N   N20       1.0  0.89505  0.41792  0.36213  1.0000
  N   N21       1.0  0.15160  0.30147  0.25575  1.0000
  N   N22       1.0  0.34840  0.30147  0.75575  1.0000
  N   N23       1.0  0.84840  0.69853  0.74425  1.0000
  N   N24       1.0  0.65160  0.69853  0.24425  1.0000
  N   N25       1.0  0.61579  0.21295  0.55088  1.0000
  N   N26       1.0  0.88421  0.21296  0.05088  1.0000
  N   N27       1.0  0.38421  0.78704  0.44912  1.0000
  N   N28       1.0  0.11579  0.78704  0.94912  1.0000
