data_image0
_chemical_formula_structural       Pd16N32
_chemical_formula_sum              "Pd16 N32"
_cell_length_a       12.3359
_cell_length_b       12.3359
_cell_length_c       12.3359
_cell_angle_alpha    103.23
_cell_angle_beta     103.23
_cell_angle_gamma    122.839

_space_group_name_H-M_alt    "P 1"
_space_group_IT_number       1

loop_
  _space_group_symop_operation_xyz
  'x, y, z'

loop_
  _atom_site_type_symbol
  _atom_site_label
  _atom_site_symmetry_multiplicity
  _atom_site_fract_x
  _atom_site_fract_y
  _atom_site_fract_z
  _atom_site_occupancy
  Pd  Pd1       1.0  0.45339  0.33182  0.50000  1.0000
  Pd  Pd2       1.0  0.83182  0.95339  0.50000  1.0000
  Pd  Pd3       1.0  0.33182  0.83182  0.87843  1.0000
  Pd  Pd4       1.0  0.95339  0.45339  0.12157  1.0000
  Pd  Pd5       1.0  0.54661  0.66818  0.50000  1.0000
  Pd  Pd6       1.0  0.16818  0.04661  0.50000  1.0000
  Pd  Pd7       1.0  0.66818  0.16818  0.12157  1.0000
  Pd  Pd8       1.0  0.04661  0.54661  0.87843  1.0000
  Pd  Pd9       1.0  0.60478  0.25000  0.35478  1.0000
  Pd  Pd10      1.0  0.89522  0.25000  0.64522  1.0000
  Pd  Pd11      1.0  0.25000  0.89522  0.64522  1.0000
  Pd  Pd12      1.0  0.25000  0.60478  0.35478  1.0000
  Pd  Pd13      1.0  0.39522  0.75000  0.64522  1.0000
  Pd  Pd14      1.0  0.10478  0.75000  0.35478  1.0000
  Pd  Pd15      1.0  0.75000  0.10478  0.35478  1.0000
  Pd  Pd16      1.0  0.75000  0.39522  0.64522  1.0000
  N   N1        1.0  0.72286  0.77714  0.50000  1.0000
  N   N2        1.0  0.27714  0.22286  0.50000  1.0000
  N   N3        1.0  0.77714  0.27714  0.05429  1.0000
  N   N4        1.0  0.22286  0.72286  0.94571  1.0000
  N   N5        1.0  0.00000  0.00000  0.50000  1.0000
  N   N6        1.0  0.50000  0.50000  0.50000  1.0000
  N   N7        1.0  0.00000  0.50000  0.00000  1.0000
  N   N8        1.0  0.50000  0.00000  0.00000  1.0000
  N   N9        1.0  0.73144  0.94915  0.36178  1.0000
  N   N10       1.0  0.58737  0.36966  0.63822  1.0000
  N   N11       1.0  0.94915  0.58737  0.21771  1.0000
  N   N12       1.0  0.36966  0.73144  0.78229  1.0000
  N   N13       1.0  0.26856  0.05085  0.63822  1.0000
  N   N14       1.0  0.41263  0.63034  0.36178  1.0000
  N   N15       1.0  0.05085  0.41263  0.78229  1.0000
  N   N16       1.0  0.63034  0.26856  0.21771  1.0000
  N   N17       1.0  0.86966  0.08737  0.63822  1.0000
  N   N18       1.0  0.44915  0.23144  0.36178  1.0000
  N   N19       1.0  0.08737  0.44915  0.21771  1.0000
  N   N20       1.0  0.23144  0.86966  0.78229  1.0000
  N   N21       1.0  0.13034  0.91263  0.36178  1.0000
  N   N22       1.0  0.55085  0.76856  0.63822  1.0000
  N   N23       1.0  0.91263  0.55085  0.78229  1.0000
  N   N24       1.0  0.76856  0.13034  0.21771  1.0000
  N   N25       1.0  0.90517  0.25493  0.50000  1.0000
  N   N26       1.0  0.75493  0.40517  0.50000  1.0000
  N   N27       1.0  0.25493  0.75493  0.34976  1.0000
  N   N28       1.0  0.40517  0.90517  0.65024  1.0000
  N   N29       1.0  0.09483  0.74507  0.50000  1.0000
  N   N30       1.0  0.24507  0.59483  0.50000  1.0000
  N   N31       1.0  0.74507  0.24507  0.65024  1.0000
  N   N32       1.0  0.59483  0.09483  0.34976  1.0000
