data_image0
_chemical_formula_structural       Pd3N6
_chemical_formula_sum              "Pd3 N6"
_cell_length_a       5.45003
_cell_length_b       5.46915
_cell_length_c       5.99335
_cell_angle_alpha    88.3582
_cell_angle_beta     89.1345
_cell_angle_gamma    60.1778

_space_group_name_H-M_alt    "P 1"
_space_group_IT_number       1

loop_
  _space_group_symop_operation_xyz
  'x, y, z'

loop_
  _atom_site_type_symbol
  _atom_site_label
  _atom_site_symmetry_multiplicity
  _atom_site_fract_x
  _atom_site_fract_y
  _atom_site_fract_z
  _atom_site_occupancy
  Pd  Pd1       1.0  0.28802  0.28763  0.33895  1.0000
  Pd  Pd2       1.0  0.27434  0.77763  0.67218  1.0000
  Pd  Pd3       1.0  0.79817  0.28850  0.00661  1.0000
  N   N1        1.0  0.02327  0.37244  0.15544  1.0000
  N   N2        1.0  0.58497  0.22464  0.19978  1.0000
  N   N3        1.0  0.19447  0.56580  0.52306  1.0000
  N   N4        1.0  0.58038  0.55816  0.83802  1.0000
  N   N5        1.0  0.99997  0.99707  0.85288  1.0000
  N   N6        1.0  0.34040  0.98314  0.49707  1.0000
