data_image0
_chemical_formula_structural       Pd4N44
_chemical_formula_sum              "Pd4 N44"
_cell_length_a       6.09463
_cell_length_b       4.27276
_cell_length_c       11.6736
_cell_angle_alpha    86.148
_cell_angle_beta     90
_cell_angle_gamma    90

_space_group_name_H-M_alt    "P 1"
_space_group_IT_number       1

loop_
  _space_group_symop_operation_xyz
  'x, y, z'

loop_
  _atom_site_type_symbol
  _atom_site_label
  _atom_site_symmetry_multiplicity
  _atom_site_fract_x
  _atom_site_fract_y
  _atom_site_fract_z
  _atom_site_occupancy
  Pd  Pd1       1.0  0.47478  0.93005  0.67243  1.0000
  Pd  Pd2       1.0  0.52522  0.06995  0.32757  1.0000
  Pd  Pd3       1.0  0.97478  0.06995  0.32757  1.0000
  Pd  Pd4       1.0  0.02522  0.93005  0.67243  1.0000
  N   N1        1.0  0.40395  0.84434  0.08643  1.0000
  N   N2        1.0  0.59605  0.15566  0.91357  1.0000
  N   N3        1.0  0.90395  0.15566  0.91357  1.0000
  N   N4        1.0  0.09605  0.84434  0.08643  1.0000
  N   N5        1.0  0.75000  0.79629  0.22044  1.0000
  N   N6        1.0  0.25000  0.20371  0.77956  1.0000
  N   N7        1.0  0.91067  0.68143  0.06094  1.0000
  N   N8        1.0  0.08933  0.31857  0.93906  1.0000
  N   N9        1.0  0.41067  0.31857  0.93906  1.0000
  N   N10       1.0  0.58933  0.68143  0.06094  1.0000
  N   N11       1.0  0.75000  0.75106  0.46420  1.0000
  N   N12       1.0  0.25000  0.24894  0.53580  1.0000
  N   N13       1.0  0.75000  0.35263  0.95694  1.0000
  N   N14       1.0  0.25000  0.64737  0.04306  1.0000
  N   N15       1.0  0.36734  0.77665  0.20304  1.0000
  N   N16       1.0  0.63267  0.22335  0.79696  1.0000
  N   N17       1.0  0.86733  0.22335  0.79696  1.0000
  N   N18       1.0  0.13267  0.77665  0.20304  1.0000
  N   N19       1.0  0.75000  0.73759  0.57962  1.0000
  N   N20       1.0  0.25000  0.26242  0.42038  1.0000
  N   N21       1.0  0.75000  0.86993  0.10676  1.0000
  N   N22       1.0  0.25000  0.13007  0.89325  1.0000
  N   N23       1.0  0.90958  0.54353  0.43011  1.0000
  N   N24       1.0  0.09043  0.45647  0.56989  1.0000
  N   N25       1.0  0.40958  0.45647  0.56989  1.0000
  N   N26       1.0  0.59042  0.54353  0.43011  1.0000
  N   N27       1.0  0.75000  0.48227  0.21705  1.0000
  N   N28       1.0  0.25000  0.51773  0.78295  1.0000
  N   N29       1.0  0.75000  0.62311  0.87572  1.0000
  N   N30       1.0  0.25000  0.37689  0.12428  1.0000
  N   N31       1.0  0.40451  0.45433  0.20335  1.0000
  N   N32       1.0  0.59549  0.54567  0.79665  1.0000
  N   N33       1.0  0.90451  0.54567  0.79665  1.0000
  N   N34       1.0  0.09549  0.45433  0.20335  1.0000
  N   N35       1.0  0.40993  0.68672  0.47705  1.0000
  N   N36       1.0  0.59008  0.31328  0.52296  1.0000
  N   N37       1.0  0.90992  0.31328  0.52296  1.0000
  N   N38       1.0  0.09008  0.68672  0.47705  1.0000
  N   N39       1.0  0.91259  0.41458  0.13785  1.0000
  N   N40       1.0  0.08741  0.58542  0.86215  1.0000
  N   N41       1.0  0.41259  0.58542  0.86215  1.0000
  N   N42       1.0  0.58741  0.41458  0.13785  1.0000
  N   N43       1.0  0.75000  0.42279  0.59491  1.0000
  N   N44       1.0  0.25000  0.57721  0.40509  1.0000
