data_image0
_chemical_formula_structural       PdN3
_chemical_formula_sum              "Pd1 N3"
_cell_length_a       3.15594
_cell_length_b       3.16864
_cell_length_c       5.72045
_cell_angle_alpha    54.9159
_cell_angle_beta     57.1284
_cell_angle_gamma    60.008

_space_group_name_H-M_alt    "P 1"
_space_group_IT_number       1

loop_
  _space_group_symop_operation_xyz
  'x, y, z'

loop_
  _atom_site_type_symbol
  _atom_site_label
  _atom_site_symmetry_multiplicity
  _atom_site_fract_x
  _atom_site_fract_y
  _atom_site_fract_z
  _atom_site_occupancy
  Pd  Pd1       1.0  0.88900  0.11217  0.00001  1.0000
  N   N1        1.0  0.86970  0.12994  0.49991  1.0000
  N   N2        1.0  0.70632  0.00007  0.73053  1.0000
  N   N3        1.0  0.03498  0.25783  0.26955  1.0000
