data_image0
_chemical_formula_structural       Pd8N12
_chemical_formula_sum              "Pd8 N12"
_cell_length_a       6.14757
_cell_length_b       6.14757
_cell_length_c       10.7571
_cell_angle_alpha    74.7672
_cell_angle_beta     74.7672
_cell_angle_gamma    59.3367

_space_group_name_H-M_alt    "P 1"
_space_group_IT_number       1

loop_
  _space_group_symop_operation_xyz
  'x, y, z'

loop_
  _atom_site_type_symbol
  _atom_site_label
  _atom_site_symmetry_multiplicity
  _atom_site_fract_x
  _atom_site_fract_y
  _atom_site_fract_z
  _atom_site_occupancy
  Pd  Pd1       1.0  0.70620  0.70620  0.39395  1.0000
  Pd  Pd2       1.0  0.80450  0.80450  0.74989  1.0000
  Pd  Pd3       1.0  0.00278  0.00278  0.52194  1.0000
  Pd  Pd4       1.0  0.25457  0.25457  0.23674  1.0000
  Pd  Pd5       1.0  0.24778  0.75376  0.23838  1.0000
  Pd  Pd6       1.0  0.29040  0.29041  0.55524  1.0000
  Pd  Pd7       1.0  0.75376  0.24778  0.23838  1.0000
  Pd  Pd8       1.0  0.79374  0.79374  0.08060  1.0000
  N   N1        1.0  0.62932  0.11989  0.62670  1.0000
  N   N2        1.0  0.89317  0.89317  0.37503  1.0000
  N   N3        1.0  0.11989  0.62932  0.62670  1.0000
  N   N4        1.0  0.11716  0.11716  0.14144  1.0000
  N   N5        1.0  0.88965  0.34780  0.37466  1.0000
  N   N6        1.0  0.87337  0.87337  0.89049  1.0000
  N   N7        1.0  0.10701  0.10701  0.64487  1.0000
  N   N8        1.0  0.34780  0.88965  0.37466  1.0000
  N   N9        1.0  0.14197  0.60953  0.12744  1.0000
  N   N10       1.0  0.60953  0.14197  0.12744  1.0000
  N   N11       1.0  0.37831  0.37832  0.36048  1.0000
  N   N12       1.0  0.60156  0.60156  0.12746  1.0000
