data_image0
_chemical_formula_structural       Pd3N18
_chemical_formula_sum              "Pd3 N18"
_cell_length_a       11.337
_cell_length_b       11.337
_cell_length_c       6.72459
_cell_angle_alpha    85.4392
_cell_angle_beta     85.4392
_cell_angle_gamma    60.9173

_space_group_name_H-M_alt    "P 1"
_space_group_IT_number       1

loop_
  _space_group_symop_operation_xyz
  'x, y, z'

loop_
  _atom_site_type_symbol
  _atom_site_label
  _atom_site_symmetry_multiplicity
  _atom_site_fract_x
  _atom_site_fract_y
  _atom_site_fract_z
  _atom_site_occupancy
  Pd  Pd1       1.0  0.66843  0.66843  0.40966  1.0000
  Pd  Pd2       1.0  0.33157  0.33157  0.59034  1.0000
  Pd  Pd3       1.0  0.00000  0.00000  0.00000  1.0000
  N   N1        1.0  0.25518  0.52101  0.41765  1.0000
  N   N2        1.0  0.93253  0.93253  0.27300  1.0000
  N   N3        1.0  0.06747  0.06747  0.72700  1.0000
  N   N4        1.0  0.80480  0.07055  0.87875  1.0000
  N   N5        1.0  0.92945  0.19520  0.12125  1.0000
  N   N6        1.0  0.19520  0.92945  0.12125  1.0000
  N   N7        1.0  0.07055  0.80480  0.87875  1.0000
  N   N8        1.0  0.47899  0.74482  0.58235  1.0000
  N   N9        1.0  0.74481  0.47899  0.58235  1.0000
  N   N10       1.0  0.25460  0.25460  0.37960  1.0000
  N   N11       1.0  0.74540  0.74540  0.62040  1.0000
  N   N12       1.0  0.40858  0.40858  0.80108  1.0000
  N   N13       1.0  0.59142  0.59142  0.19892  1.0000
  N   N14       1.0  0.40793  0.14217  0.76320  1.0000
  N   N15       1.0  0.85783  0.59207  0.23680  1.0000
  N   N16       1.0  0.59207  0.85783  0.23680  1.0000
  N   N17       1.0  0.14217  0.40793  0.76320  1.0000
  N   N18       1.0  0.52101  0.25518  0.41765  1.0000
