data_image0
_chemical_formula_structural       Pd2N8
_chemical_formula_sum              "Pd2 N8"
_cell_length_a       5.90685
_cell_length_b       6.28831
_cell_length_c       7.36468
_cell_angle_alpha    90
_cell_angle_beta     90
_cell_angle_gamma    90

_space_group_name_H-M_alt    "P 1"
_space_group_IT_number       1

loop_
  _space_group_symop_operation_xyz
  'x, y, z'

loop_
  _atom_site_type_symbol
  _atom_site_label
  _atom_site_symmetry_multiplicity
  _atom_site_fract_x
  _atom_site_fract_y
  _atom_site_fract_z
  _atom_site_occupancy
  Pd  Pd1       1.0  0.75000  0.27023  0.50000  1.0000
  Pd  Pd2       1.0  0.25000  0.72977  0.50000  1.0000
  N   N1        1.0  0.75000  0.12694  0.08205  1.0000
  N   N2        1.0  0.25000  0.87306  0.91795  1.0000
  N   N3        1.0  0.75000  0.63135  0.07268  1.0000
  N   N4        1.0  0.25000  0.36865  0.92732  1.0000
  N   N5        1.0  0.75000  0.63135  0.92732  1.0000
  N   N6        1.0  0.25000  0.36865  0.07268  1.0000
  N   N7        1.0  0.25000  0.87306  0.08205  1.0000
  N   N8        1.0  0.75000  0.12694  0.91795  1.0000
