data_image0
_chemical_formula_structural       Pd12N24
_chemical_formula_sum              "Pd12 N24"
_cell_length_a       10.0692
_cell_length_b       10.0692
_cell_length_c       10.0692
_cell_angle_alpha    94.5117
_cell_angle_beta     94.5117
_cell_angle_gamma    94.5117

_space_group_name_H-M_alt    "P 1"
_space_group_IT_number       1

loop_
  _space_group_symop_operation_xyz
  'x, y, z'

loop_
  _atom_site_type_symbol
  _atom_site_label
  _atom_site_symmetry_multiplicity
  _atom_site_fract_x
  _atom_site_fract_y
  _atom_site_fract_z
  _atom_site_occupancy
  Pd  Pd1       1.0  0.66760  0.12382  0.89586  1.0000
  Pd  Pd2       1.0  0.89586  0.66760  0.12382  1.0000
  Pd  Pd3       1.0  0.12382  0.89586  0.66760  1.0000
  Pd  Pd4       1.0  0.89586  0.12382  0.66760  1.0000
  Pd  Pd5       1.0  0.66760  0.89586  0.12382  1.0000
  Pd  Pd6       1.0  0.12382  0.66760  0.89586  1.0000
  Pd  Pd7       1.0  0.33240  0.87618  0.10414  1.0000
  Pd  Pd8       1.0  0.10414  0.33240  0.87618  1.0000
  Pd  Pd9       1.0  0.87618  0.10414  0.33240  1.0000
  Pd  Pd10      1.0  0.10414  0.87618  0.33240  1.0000
  Pd  Pd11      1.0  0.33240  0.10414  0.87618  1.0000
  Pd  Pd12      1.0  0.87618  0.33240  0.10414  1.0000
  N   N1        1.0  0.75494  0.10869  0.75494  1.0000
  N   N2        1.0  0.75494  0.75494  0.10869  1.0000
  N   N3        1.0  0.10869  0.75494  0.75494  1.0000
  N   N4        1.0  0.24506  0.89131  0.24506  1.0000
  N   N5        1.0  0.24506  0.24506  0.89131  1.0000
  N   N6        1.0  0.89131  0.24506  0.24506  1.0000
  N   N7        1.0  0.50000  0.14255  0.85746  1.0000
  N   N8        1.0  0.85745  0.50000  0.14255  1.0000
  N   N9        1.0  0.14254  0.85745  0.50000  1.0000
  N   N10       1.0  0.85745  0.14255  0.50000  1.0000
  N   N11       1.0  0.50000  0.85745  0.14255  1.0000
  N   N12       1.0  0.14255  0.50000  0.85746  1.0000
  N   N13       1.0  0.67895  0.98539  0.98539  1.0000
  N   N14       1.0  0.98539  0.67895  0.98539  1.0000
  N   N15       1.0  0.98539  0.98539  0.67895  1.0000
  N   N16       1.0  0.32105  0.01461  0.01461  1.0000
  N   N17       1.0  0.01461  0.32105  0.01461  1.0000
  N   N18       1.0  0.01461  0.01461  0.32105  1.0000
  N   N19       1.0  0.74163  0.25837  0.00000  1.0000
  N   N20       1.0  0.00000  0.74163  0.25837  1.0000
  N   N21       1.0  0.25837  0.00000  0.74163  1.0000
  N   N22       1.0  0.00000  0.25837  0.74163  1.0000
  N   N23       1.0  0.74163  0.00000  0.25837  1.0000
  N   N24       1.0  0.25837  0.74163  0.00000  1.0000
