data_image0
_chemical_formula_structural       N28Pd4
_chemical_formula_sum              "N28 Pd4"
_cell_length_a       4.92197
_cell_length_b       6.99006
_cell_length_c       9.00263
_cell_angle_alpha    57.3266
_cell_angle_beta     90
_cell_angle_gamma    90

_space_group_name_H-M_alt    "P 1"
_space_group_IT_number       1

loop_
  _space_group_symop_operation_xyz
  'x, y, z'

loop_
  _atom_site_type_symbol
  _atom_site_label
  _atom_site_symmetry_multiplicity
  _atom_site_fract_x
  _atom_site_fract_y
  _atom_site_fract_z
  _atom_site_occupancy
  N   N1        1.0  0.62069  0.91370  0.63613  1.0000
  N   N2        1.0  0.12069  0.08630  0.86387  1.0000
  N   N3        1.0  0.37931  0.08630  0.36387  1.0000
  N   N4        1.0  0.87931  0.91370  0.13613  1.0000
  N   N5        1.0  0.58063  0.89904  0.91186  1.0000
  N   N6        1.0  0.08063  0.10096  0.58814  1.0000
  N   N7        1.0  0.41937  0.10096  0.08814  1.0000
  N   N8        1.0  0.91937  0.89904  0.41186  1.0000
  N   N9        1.0  0.92759  0.86188  0.70213  1.0000
  N   N10       1.0  0.42759  0.13812  0.79787  1.0000
  N   N11       1.0  0.07241  0.13812  0.29787  1.0000
  N   N12       1.0  0.57241  0.86188  0.20213  1.0000
  N   N13       1.0  0.07418  0.76530  0.59868  1.0000
  N   N14       1.0  0.57418  0.23470  0.90132  1.0000
  N   N15       1.0  0.92582  0.23470  0.40132  1.0000
  N   N16       1.0  0.42582  0.76530  0.09868  1.0000
  N   N17       1.0  0.58599  0.55101  0.91222  1.0000
  N   N18       1.0  0.08599  0.44899  0.58779  1.0000
  N   N19       1.0  0.41401  0.44899  0.08779  1.0000
  N   N20       1.0  0.91401  0.55101  0.41221  1.0000
  N   N21       1.0  0.90235  0.54126  0.68030  1.0000
  N   N22       1.0  0.40235  0.45874  0.81970  1.0000
  N   N23       1.0  0.09765  0.45874  0.31970  1.0000
  N   N24       1.0  0.59765  0.54126  0.18030  1.0000
  N   N25       1.0  0.94510  0.20610  0.68988  1.0000
  N   N26       1.0  0.44510  0.79390  0.81012  1.0000
  N   N27       1.0  0.05490  0.79390  0.31012  1.0000
  N   N28       1.0  0.55490  0.20610  0.18988  1.0000
  Pd  Pd1       1.0  0.52143  0.70010  0.55558  1.0000
  Pd  Pd2       1.0  0.02143  0.29990  0.94442  1.0000
  Pd  Pd3       1.0  0.47857  0.29990  0.44442  1.0000
  Pd  Pd4       1.0  0.97857  0.70010  0.05558  1.0000
