data_image0
_chemical_formula_structural       Pd8N10
_chemical_formula_sum              "Pd8 N10"
_cell_length_a       6.69024
_cell_length_b       8.53657
_cell_length_c       6.69718
_cell_angle_alpha    91.1909
_cell_angle_beta     89.9992
_cell_angle_gamma    89.3197

_space_group_name_H-M_alt    "P 1"
_space_group_IT_number       1

loop_
  _space_group_symop_operation_xyz
  'x, y, z'

loop_
  _atom_site_type_symbol
  _atom_site_label
  _atom_site_symmetry_multiplicity
  _atom_site_fract_x
  _atom_site_fract_y
  _atom_site_fract_z
  _atom_site_occupancy
  Pd  Pd1       1.0  0.09665  0.99619  0.29274  1.0000
  Pd  Pd2       1.0  0.20467  0.99489  0.59543  1.0000
  Pd  Pd3       1.0  0.29401  0.00441  0.90048  1.0000
  Pd  Pd4       1.0  0.40180  0.00580  0.20312  1.0000
  Pd  Pd5       1.0  0.90302  0.99632  0.70700  1.0000
  Pd  Pd6       1.0  0.79474  0.99489  0.40401  1.0000
  Pd  Pd7       1.0  0.70605  0.00437  0.09995  1.0000
  Pd  Pd8       1.0  0.59799  0.00558  0.79734  1.0000
  N   N1        1.0  0.99768  0.11851  0.50293  1.0000
  N   N2        1.0  0.20111  0.12536  0.10811  1.0000
  N   N3        1.0  0.29794  0.87618  0.38621  1.0000
  N   N4        1.0  0.39117  0.12295  0.70422  1.0000
  N   N5        1.0  0.50197  0.88177  0.99694  1.0000
  N   N6        1.0  0.89347  0.87357  0.20302  1.0000
  N   N7        1.0  0.79504  0.12512  0.89886  1.0000
  N   N8        1.0  0.70542  0.87618  0.60713  1.0000
  N   N9        1.0  0.60545  0.12388  0.30144  1.0000
  N   N10       1.0  0.10984  0.87403  0.79108  1.0000
