data_image0
_chemical_formula_structural       Pd2N4
_chemical_formula_sum              "Pd2 N4"
_cell_length_a       2.7374
_cell_length_b       2.7374
_cell_length_c       19.3358
_cell_angle_alpha    90
_cell_angle_beta     90
_cell_angle_gamma    119.983

_space_group_name_H-M_alt    "P 1"
_space_group_IT_number       1

loop_
  _space_group_symop_operation_xyz
  'x, y, z'

loop_
  _atom_site_type_symbol
  _atom_site_label
  _atom_site_symmetry_multiplicity
  _atom_site_fract_x
  _atom_site_fract_y
  _atom_site_fract_z
  _atom_site_occupancy
  Pd  Pd1       1.0  0.91783  0.08217  0.25000  1.0000
  Pd  Pd2       1.0  0.08217  0.91783  0.75000  1.0000
  N   N1        1.0  0.74880  0.25120  0.68385  1.0000
  N   N2        1.0  0.74880  0.25120  0.81615  1.0000
  N   N3        1.0  0.25120  0.74880  0.31615  1.0000
  N   N4        1.0  0.25120  0.74880  0.18385  1.0000
