data_image0
_chemical_formula_structural       Pd4N20
_chemical_formula_sum              "Pd4 N20"
_cell_length_a       6.67957
_cell_length_b       3.87229
_cell_length_c       6.63766
_cell_angle_alpha    73.2834
_cell_angle_beta     90
_cell_angle_gamma    90

_space_group_name_H-M_alt    "P 1"
_space_group_IT_number       1

loop_
  _space_group_symop_operation_xyz
  'x, y, z'

loop_
  _atom_site_type_symbol
  _atom_site_label
  _atom_site_symmetry_multiplicity
  _atom_site_fract_x
  _atom_site_fract_y
  _atom_site_fract_z
  _atom_site_occupancy
  Pd  Pd1       1.0  0.25000  0.09274  0.04838  1.0000
  Pd  Pd2       1.0  0.75000  0.90726  0.95161  1.0000
  Pd  Pd3       1.0  0.25000  0.12779  0.52204  1.0000
  Pd  Pd4       1.0  0.75000  0.87221  0.47796  1.0000
  N   N1        1.0  0.58604  0.45468  0.68916  1.0000
  N   N2        1.0  0.08604  0.54532  0.31084  1.0000
  N   N3        1.0  0.41396  0.54532  0.31084  1.0000
  N   N4        1.0  0.91396  0.45468  0.68916  1.0000
  N   N5        1.0  0.54902  0.13521  0.13636  1.0000
  N   N6        1.0  0.04902  0.86479  0.86364  1.0000
  N   N7        1.0  0.45098  0.86479  0.86364  1.0000
  N   N8        1.0  0.95098  0.13521  0.13636  1.0000
  N   N9        1.0  0.59548  0.48036  0.18759  1.0000
  N   N10       1.0  0.09548  0.51964  0.81241  1.0000
  N   N11       1.0  0.40452  0.51964  0.81241  1.0000
  N   N12       1.0  0.90452  0.48036  0.18759  1.0000
  N   N13       1.0  0.25000  0.57594  0.63647  1.0000
  N   N14       1.0  0.75000  0.42406  0.36353  1.0000
  N   N15       1.0  0.54513  0.09098  0.65824  1.0000
  N   N16       1.0  0.04513  0.90902  0.34176  1.0000
  N   N17       1.0  0.45487  0.90902  0.34176  1.0000
  N   N18       1.0  0.95487  0.09098  0.65824  1.0000
  N   N19       1.0  0.25000  0.54523  0.15040  1.0000
  N   N20       1.0  0.75000  0.45477  0.84960  1.0000
