data_image0
_chemical_formula_structural       Pd2N4
_chemical_formula_sum              "Pd2 N4"
_cell_length_a       3.02535
_cell_length_b       4.33941
_cell_length_c       5.10927
_cell_angle_alpha    65.8448
_cell_angle_beta     90
_cell_angle_gamma    90

_space_group_name_H-M_alt    "P 1"
_space_group_IT_number       1

loop_
  _space_group_symop_operation_xyz
  'x, y, z'

loop_
  _atom_site_type_symbol
  _atom_site_label
  _atom_site_symmetry_multiplicity
  _atom_site_fract_x
  _atom_site_fract_y
  _atom_site_fract_z
  _atom_site_occupancy
  Pd  Pd1       1.0  0.80996  0.50000  0.75000  1.0000
  Pd  Pd2       1.0  0.19004  0.50000  0.25000  1.0000
  N   N1        1.0  0.30179  0.17665  0.69168  1.0000
  N   N2        1.0  0.30179  0.82334  0.80832  1.0000
  N   N3        1.0  0.69821  0.82334  0.30832  1.0000
  N   N4        1.0  0.69821  0.17666  0.19168  1.0000
