data_image0
_chemical_formula_structural       Pd4N8
_chemical_formula_sum              "Pd4 N8"
_cell_length_a       3.82665
_cell_length_b       3.22929
_cell_length_c       3.58098
_cell_angle_alpha    74.2132
_cell_angle_beta     90
_cell_angle_gamma    90

_space_group_name_H-M_alt    "P 1"
_space_group_IT_number       1

loop_
  _space_group_symop_operation_xyz
  'x, y, z'

loop_
  _atom_site_type_symbol
  _atom_site_label
  _atom_site_symmetry_multiplicity
  _atom_site_fract_x
  _atom_site_fract_y
  _atom_site_fract_z
  _atom_site_occupancy
  Pd  Pd1       1.0  0.50000  0.01218  0.00899  1.0000
  Pd  Pd2       1.0  0.50000  0.53853  0.47422  1.0000
  Pd  Pd3       1.0  0.00000  0.96628  0.77036  1.0000
  Pd  Pd4       1.0  0.00000  0.54290  0.43071  1.0000
  N   N1        1.0  0.00000  0.33494  0.75550  1.0000
  N   N2        1.0  0.73831  0.42591  0.31963  1.0000
  N   N3        1.0  0.26169  0.42591  0.31963  1.0000
  N   N4        1.0  0.50000  0.91679  0.35217  1.0000
  N   N5        1.0  0.25615  0.82245  0.93794  1.0000
  N   N6        1.0  0.74385  0.82245  0.93794  1.0000
  N   N7        1.0  0.00000  0.89497  0.46517  1.0000
  N   N8        1.0  0.50000  0.36879  0.81073  1.0000
