data_image0
_chemical_formula_structural       PdN3
_chemical_formula_sum              "Pd1 N3"
_cell_length_a       4.09739
_cell_length_b       4.09739
_cell_length_c       4.09739
_cell_angle_alpha    89.8285
_cell_angle_beta     89.8285
_cell_angle_gamma    89.8285

_space_group_name_H-M_alt    "P 1"
_space_group_IT_number       1

loop_
  _space_group_symop_operation_xyz
  'x, y, z'

loop_
  _atom_site_type_symbol
  _atom_site_label
  _atom_site_symmetry_multiplicity
  _atom_site_fract_x
  _atom_site_fract_y
  _atom_site_fract_z
  _atom_site_occupancy
  Pd  Pd1       1.0  0.00000  0.00000  0.00000  1.0000
  N   N1        1.0  0.01157  0.50000  0.98843  1.0000
  N   N2        1.0  0.98843  0.01157  0.50000  1.0000
  N   N3        1.0  0.50000  0.98843  0.01157  1.0000
