data_image0
_chemical_formula_structural       PdN28
_chemical_formula_sum              "Pd1 N28"
_cell_length_a       4.24078
_cell_length_b       4.24078
_cell_length_c       4.24078
_cell_angle_alpha    109.471
_cell_angle_beta     109.471
_cell_angle_gamma    109.471

_space_group_name_H-M_alt    "P 1"
_space_group_IT_number       1

loop_
  _space_group_symop_operation_xyz
  'x, y, z'

loop_
  _atom_site_type_symbol
  _atom_site_label
  _atom_site_symmetry_multiplicity
  _atom_site_fract_x
  _atom_site_fract_y
  _atom_site_fract_z
  _atom_site_occupancy
  Pd  Pd1       1.0  0.00000  0.00000  0.00000  1.0000
  N   N1        1.0  0.62602  0.00000  0.00000  1.0000
  N   N2        1.0  0.00000  0.62602  0.00000  1.0000
  N   N3        1.0  0.00000  0.00000  0.62602  1.0000
  N   N4        1.0  0.37398  0.37398  0.37398  1.0000
  N   N5        1.0  0.39270  0.67825  0.00000  1.0000
  N   N6        1.0  0.71445  0.32175  0.32175  1.0000
  N   N7        1.0  0.39270  0.00000  0.67825  1.0000
  N   N8        1.0  0.67825  0.39270  0.00000  1.0000
  N   N9        1.0  0.00000  0.39270  0.67825  1.0000
  N   N10       1.0  0.32175  0.71445  0.32175  1.0000
  N   N11       1.0  0.32175  0.32175  0.71445  1.0000
  N   N12       1.0  0.00000  0.67825  0.39270  1.0000
  N   N13       1.0  0.67825  0.00000  0.39270  1.0000
  N   N14       1.0  0.60730  0.60730  0.28555  1.0000
  N   N15       1.0  0.28555  0.60730  0.60730  1.0000
  N   N16       1.0  0.60730  0.28555  0.60730  1.0000
  N   N17       1.0  0.37742  0.19863  0.00000  1.0000
  N   N18       1.0  0.17878  0.80137  0.80137  1.0000
  N   N19       1.0  0.37742  0.00000  0.19863  1.0000
  N   N20       1.0  0.19863  0.37742  0.00000  1.0000
  N   N21       1.0  0.00000  0.37742  0.19863  1.0000
  N   N22       1.0  0.80137  0.17878  0.80137  1.0000
  N   N23       1.0  0.80137  0.80137  0.17878  1.0000
  N   N24       1.0  0.00000  0.19863  0.37742  1.0000
  N   N25       1.0  0.19863  0.00000  0.37742  1.0000
  N   N26       1.0  0.62259  0.62259  0.82122  1.0000
  N   N27       1.0  0.82122  0.62259  0.62259  1.0000
  N   N28       1.0  0.62259  0.82122  0.62259  1.0000
