data_image0
_chemical_formula_structural       Pd2N8
_chemical_formula_sum              "Pd2 N8"
_cell_length_a       3.53602
_cell_length_b       3.53602
_cell_length_c       3.43355
_cell_angle_alpha    90
_cell_angle_beta     90
_cell_angle_gamma    127.864

_space_group_name_H-M_alt    "P 1"
_space_group_IT_number       1

loop_
  _space_group_symop_operation_xyz
  'x, y, z'

loop_
  _atom_site_type_symbol
  _atom_site_label
  _atom_site_symmetry_multiplicity
  _atom_site_fract_x
  _atom_site_fract_y
  _atom_site_fract_z
  _atom_site_occupancy
  Pd  Pd1       1.0  0.17416  0.82584  0.75000  1.0000
  Pd  Pd2       1.0  0.82584  0.17416  0.25000  1.0000
  N   N1        1.0  0.00266  0.63667  0.13267  1.0000
  N   N2        1.0  0.30645  0.26967  0.80172  1.0000
  N   N3        1.0  0.99734  0.36333  0.63267  1.0000
  N   N4        1.0  0.26967  0.30645  0.19828  1.0000
  N   N5        1.0  0.63667  0.00266  0.86733  1.0000
  N   N6        1.0  0.36333  0.99734  0.36733  1.0000
  N   N7        1.0  0.69355  0.73033  0.30172  1.0000
  N   N8        1.0  0.73033  0.69355  0.69828  1.0000
