data_image0
_chemical_formula_structural       Pd2N8
_chemical_formula_sum              "Pd2 N8"
_cell_length_a       3.23404
_cell_length_b       3.6936
_cell_length_c       3.71237
_cell_angle_alpha    110.81
_cell_angle_beta     115.788
_cell_angle_gamma    86.2458

_space_group_name_H-M_alt    "P 1"
_space_group_IT_number       1

loop_
  _space_group_symop_operation_xyz
  'x, y, z'

loop_
  _atom_site_type_symbol
  _atom_site_label
  _atom_site_symmetry_multiplicity
  _atom_site_fract_x
  _atom_site_fract_y
  _atom_site_fract_z
  _atom_site_occupancy
  Pd  Pd1       1.0  0.00163  0.72404  0.21532  1.0000
  Pd  Pd2       1.0  0.99837  0.27596  0.78468  1.0000
  N   N1        1.0  0.44294  0.19686  0.04502  1.0000
  N   N2        1.0  0.55706  0.80314  0.95498  1.0000
  N   N3        1.0  0.44939  0.69516  0.51025  1.0000
  N   N4        1.0  0.55061  0.30484  0.48975  1.0000
  N   N5        1.0  0.12632  0.66875  0.88024  1.0000
  N   N6        1.0  0.87368  0.33125  0.11976  1.0000
  N   N7        1.0  0.88111  0.84896  0.57774  1.0000
  N   N8        1.0  0.11889  0.15104  0.42225  1.0000
