data_image0
_chemical_formula_structural       Pd2N30
_chemical_formula_sum              "Pd2 N30"
_cell_length_a       4.7446
_cell_length_b       5.92552
_cell_length_c       8.03626
_cell_angle_alpha    88.4181
_cell_angle_beta     101.544
_cell_angle_gamma    111.67

_space_group_name_H-M_alt    "P 1"
_space_group_IT_number       1

loop_
  _space_group_symop_operation_xyz
  'x, y, z'

loop_
  _atom_site_type_symbol
  _atom_site_label
  _atom_site_symmetry_multiplicity
  _atom_site_fract_x
  _atom_site_fract_y
  _atom_site_fract_z
  _atom_site_occupancy
  Pd  Pd1       1.0  0.21540  0.21002  0.00193  1.0000
  Pd  Pd2       1.0  0.78460  0.78998  0.99808  1.0000
  N   N1        1.0  0.01061  0.43242  0.81127  1.0000
  N   N2        1.0  0.98939  0.56758  0.18873  1.0000
  N   N3        1.0  0.29742  0.87853  0.18927  1.0000
  N   N4        1.0  0.70258  0.12147  0.81073  1.0000
  N   N5        1.0  0.12072  0.76246  0.30485  1.0000
  N   N6        1.0  0.87928  0.23754  0.69515  1.0000
  N   N7        1.0  0.33407  0.69053  0.42911  1.0000
  N   N8        1.0  0.66593  0.30947  0.57089  1.0000
  N   N9        1.0  0.19945  0.59003  0.71599  1.0000
  N   N10       1.0  0.80055  0.40997  0.28402  1.0000
  N   N11       1.0  0.00721  0.33900  0.40521  1.0000
  N   N12       1.0  0.99279  0.66099  0.59479  1.0000
  N   N13       1.0  0.52126  0.26292  0.80582  1.0000
  N   N14       1.0  0.47874  0.73708  0.19418  1.0000
  N   N15       1.0  0.31276  0.98333  0.59420  1.0000
  N   N16       1.0  0.68724  0.01667  0.40580  1.0000
  N   N17       1.0  0.29382  0.46339  0.36882  1.0000
  N   N18       1.0  0.70618  0.53661  0.63118  1.0000
  N   N19       1.0  0.03948  0.89245  0.65559  1.0000
  N   N20       1.0  0.96052  0.10755  0.34441  1.0000
  N   N21       1.0  0.75777  0.50177  0.80508  1.0000
  N   N22       1.0  0.24223  0.49823  0.19492  1.0000
  N   N23       1.0  0.60347  0.77329  0.36774  1.0000
  N   N24       1.0  0.39653  0.22671  0.63226  1.0000
  N   N25       1.0  0.51989  0.91189  0.71460  1.0000
  N   N26       1.0  0.48012  0.08811  0.28540  1.0000
  N   N27       1.0  0.12594  0.89397  0.82552  1.0000
  N   N28       1.0  0.87406  0.10603  0.17448  1.0000
  N   N29       1.0  0.33727  0.79202  0.82978  1.0000
  N   N30       1.0  0.66273  0.20798  0.17022  1.0000
