data_image0
_chemical_formula_structural       N4Pd3
_chemical_formula_sum              "N4 Pd3"
_cell_length_a       2.87771
_cell_length_b       2.87771
_cell_length_c       6.87405
_cell_angle_alpha    90
_cell_angle_beta     90
_cell_angle_gamma    120

_space_group_name_H-M_alt    "P 1"
_space_group_IT_number       1

loop_
  _space_group_symop_operation_xyz
  'x, y, z'

loop_
  _atom_site_type_symbol
  _atom_site_label
  _atom_site_symmetry_multiplicity
  _atom_site_fract_x
  _atom_site_fract_y
  _atom_site_fract_z
  _atom_site_occupancy
  N   N1        1.0  0.66667  0.33333  0.12301  1.0000
  N   N2        1.0  0.66667  0.33333  0.62759  1.0000
  N   N3        1.0  0.66667  0.33333  0.37241  1.0000
  N   N4        1.0  0.66667  0.33333  0.87699  1.0000
  Pd  Pd1       1.0  0.33333  0.66667  0.50000  1.0000
  Pd  Pd2       1.0  0.00000  0.00000  0.24072  1.0000
  Pd  Pd3       1.0  0.00000  0.00000  0.75928  1.0000
