data_image0
_chemical_formula_structural       Pd2N14
_chemical_formula_sum              "Pd2 N14"
_cell_length_a       5.45826
_cell_length_b       5.45826
_cell_length_c       5.45826
_cell_angle_alpha    37.6074
_cell_angle_beta     37.6074
_cell_angle_gamma    37.6074

_space_group_name_H-M_alt    "P 1"
_space_group_IT_number       1

loop_
  _space_group_symop_operation_xyz
  'x, y, z'

loop_
  _atom_site_type_symbol
  _atom_site_label
  _atom_site_symmetry_multiplicity
  _atom_site_fract_x
  _atom_site_fract_y
  _atom_site_fract_z
  _atom_site_occupancy
  Pd  Pd1       1.0  0.19477  0.19477  0.19477  1.0000
  Pd  Pd2       1.0  0.80523  0.80523  0.80523  1.0000
  N   N1        1.0  0.78473  0.78473  0.20341  1.0000
  N   N2        1.0  0.20341  0.78473  0.78473  1.0000
  N   N3        1.0  0.45521  0.45521  0.45521  1.0000
  N   N4        1.0  0.54479  0.54479  0.54479  1.0000
  N   N5        1.0  0.41769  0.81817  0.81817  1.0000
  N   N6        1.0  0.81817  0.81817  0.41769  1.0000
  N   N7        1.0  0.81817  0.41770  0.81817  1.0000
  N   N8        1.0  0.18183  0.58231  0.18183  1.0000
  N   N9        1.0  0.58230  0.18183  0.18183  1.0000
  N   N10       1.0  0.18183  0.18183  0.58230  1.0000
  N   N11       1.0  0.79659  0.21527  0.21527  1.0000
  N   N12       1.0  0.21527  0.21527  0.79659  1.0000
  N   N13       1.0  0.21527  0.79659  0.21527  1.0000
  N   N14       1.0  0.78473  0.20341  0.78473  1.0000
