data_image0
_chemical_formula_structural       N12Pd12
_chemical_formula_sum              "N12 Pd12"
_cell_length_a       6.50037
_cell_length_b       6.50037
_cell_length_c       9.72559
_cell_angle_alpha    90
_cell_angle_beta     90
_cell_angle_gamma    160.519

_space_group_name_H-M_alt    "P 1"
_space_group_IT_number       1

loop_
  _space_group_symop_operation_xyz
  'x, y, z'

loop_
  _atom_site_type_symbol
  _atom_site_label
  _atom_site_symmetry_multiplicity
  _atom_site_fract_x
  _atom_site_fract_y
  _atom_site_fract_z
  _atom_site_occupancy
  N   N1        1.0  0.82878  0.17122  0.73996  1.0000
  N   N2        1.0  0.17122  0.82878  0.23996  1.0000
  N   N3        1.0  0.94012  0.05987  0.77715  1.0000
  N   N4        1.0  0.05987  0.94012  0.27715  1.0000
  N   N5        1.0  0.56434  0.43565  0.69025  1.0000
  N   N6        1.0  0.43565  0.56434  0.19025  1.0000
  N   N7        1.0  0.56727  0.43273  0.84090  1.0000
  N   N8        1.0  0.43273  0.56727  0.34090  1.0000
  N   N9        1.0  0.20465  0.79535  0.82692  1.0000
  N   N10       1.0  0.79535  0.20465  0.32692  1.0000
  N   N11       1.0  0.20167  0.79833  0.67629  1.0000
  N   N12       1.0  0.79833  0.20167  0.17629  1.0000
  Pd  Pd1       1.0  0.00012  0.99988  0.65236  1.0000
  Pd  Pd2       1.0  0.99988  0.00012  0.15236  1.0000
  Pd  Pd3       1.0  0.76886  0.23114  0.86485  1.0000
  Pd  Pd4       1.0  0.23114  0.76886  0.36485  1.0000
  Pd  Pd5       1.0  0.65518  0.34482  0.60711  1.0000
  Pd  Pd6       1.0  0.34482  0.65518  0.10711  1.0000
  Pd  Pd7       1.0  0.45857  0.54143  0.86736  1.0000
  Pd  Pd8       1.0  0.54143  0.45857  0.36736  1.0000
  Pd  Pd9       1.0  0.31034  0.68966  0.64976  1.0000
  Pd  Pd10      1.0  0.68966  0.31034  0.14976  1.0000
  Pd  Pd11      1.0  0.11380  0.88620  0.91004  1.0000
  Pd  Pd12      1.0  0.88620  0.11380  0.41004  1.0000
