data_image0
_chemical_formula_structural       PdN34
_chemical_formula_sum              "Pd1 N34"
_cell_length_a       6.80378
_cell_length_b       6.80378
_cell_length_c       6.80378
_cell_angle_alpha    60
_cell_angle_beta     60
_cell_angle_gamma    60

_space_group_name_H-M_alt    "P 1"
_space_group_IT_number       1

loop_
  _space_group_symop_operation_xyz
  'x, y, z'

loop_
  _atom_site_type_symbol
  _atom_site_label
  _atom_site_symmetry_multiplicity
  _atom_site_fract_x
  _atom_site_fract_y
  _atom_site_fract_z
  _atom_site_occupancy
  Pd  Pd1       1.0  0.75000  0.75000  0.75000  1.0000
  N   N1        1.0  0.00000  0.00000  0.00000  1.0000
  N   N2        1.0  0.25000  0.25000  0.25000  1.0000
  N   N3        1.0  0.36110  0.75435  0.75435  1.0000
  N   N4        1.0  0.75435  0.36110  0.13019  1.0000
  N   N5        1.0  0.75435  0.13019  0.36110  1.0000
  N   N6        1.0  0.13019  0.75435  0.75435  1.0000
  N   N7        1.0  0.75435  0.75435  0.36110  1.0000
  N   N8        1.0  0.36110  0.13019  0.75435  1.0000
  N   N9        1.0  0.13019  0.36110  0.75435  1.0000
  N   N10       1.0  0.75435  0.75435  0.13019  1.0000
  N   N11       1.0  0.75435  0.36110  0.75435  1.0000
  N   N12       1.0  0.13019  0.75435  0.36110  1.0000
  N   N13       1.0  0.36110  0.75435  0.13019  1.0000
  N   N14       1.0  0.75435  0.13019  0.75435  1.0000
  N   N15       1.0  0.88913  0.49575  0.49575  1.0000
  N   N16       1.0  0.49575  0.88913  0.11938  1.0000
  N   N17       1.0  0.49575  0.11938  0.88913  1.0000
  N   N18       1.0  0.11938  0.49575  0.49575  1.0000
  N   N19       1.0  0.49575  0.49575  0.88913  1.0000
  N   N20       1.0  0.88913  0.11938  0.49575  1.0000
  N   N21       1.0  0.11938  0.88913  0.49575  1.0000
  N   N22       1.0  0.49575  0.49575  0.11938  1.0000
  N   N23       1.0  0.49575  0.88913  0.49575  1.0000
  N   N24       1.0  0.11938  0.49575  0.88913  1.0000
  N   N25       1.0  0.88913  0.49575  0.11938  1.0000
  N   N26       1.0  0.49575  0.11938  0.49575  1.0000
  N   N27       1.0  0.27684  0.90772  0.90772  1.0000
  N   N28       1.0  0.90772  0.27684  0.90772  1.0000
  N   N29       1.0  0.90772  0.90772  0.27684  1.0000
  N   N30       1.0  0.90772  0.90772  0.90772  1.0000
  N   N31       1.0  0.97350  0.34217  0.34217  1.0000
  N   N32       1.0  0.34217  0.97350  0.34217  1.0000
  N   N33       1.0  0.34217  0.34217  0.97350  1.0000
  N   N34       1.0  0.34217  0.34217  0.34217  1.0000
