data_image0
_chemical_formula_structural       Pd4N6
_chemical_formula_sum              "Pd4 N6"
_cell_length_a       3.4865
_cell_length_b       4.92996
_cell_length_c       6.00738
_cell_angle_alpha    90
_cell_angle_beta     90
_cell_angle_gamma    90

_space_group_name_H-M_alt    "P 1"
_space_group_IT_number       1

loop_
  _space_group_symop_operation_xyz
  'x, y, z'

loop_
  _atom_site_type_symbol
  _atom_site_label
  _atom_site_symmetry_multiplicity
  _atom_site_fract_x
  _atom_site_fract_y
  _atom_site_fract_z
  _atom_site_occupancy
  Pd  Pd1       1.0  0.50000  0.89160  0.20853  1.0000
  Pd  Pd2       1.0  0.50000  0.10840  0.79147  1.0000
  Pd  Pd3       1.0  0.00000  0.39160  0.29147  1.0000
  Pd  Pd4       1.0  0.00000  0.60840  0.70853  1.0000
  N   N1        1.0  0.50000  0.70656  0.88204  1.0000
  N   N2        1.0  0.50000  0.29344  0.11796  1.0000
  N   N3        1.0  0.00000  0.20656  0.61796  1.0000
  N   N4        1.0  0.00000  0.79343  0.38204  1.0000
  N   N5        1.0  0.00000  0.00000  0.50000  1.0000
  N   N6        1.0  0.50000  0.50000  0.00000  1.0000
