data_image0
_chemical_formula_structural       Pd4N6
_chemical_formula_sum              "Pd4 N6"
_cell_length_a       5.46571
_cell_length_b       5.35063
_cell_length_c       4.09986
_cell_angle_alpha    69.2221
_cell_angle_beta     66.2449
_cell_angle_gamma    44.533

_space_group_name_H-M_alt    "P 1"
_space_group_IT_number       1

loop_
  _space_group_symop_operation_xyz
  'x, y, z'

loop_
  _atom_site_type_symbol
  _atom_site_label
  _atom_site_symmetry_multiplicity
  _atom_site_fract_x
  _atom_site_fract_y
  _atom_site_fract_z
  _atom_site_occupancy
  Pd  Pd1       1.0  0.25000  0.25000  0.25000  1.0000
  Pd  Pd2       1.0  0.75000  0.75000  0.75000  1.0000
  Pd  Pd3       1.0  0.72313  0.27687  0.72313  1.0000
  Pd  Pd4       1.0  0.27687  0.72313  0.27687  1.0000
  N   N1        1.0  0.85342  0.85342  0.14658  1.0000
  N   N2        1.0  0.14658  0.14658  0.85342  1.0000
  N   N3        1.0  0.72082  0.13339  0.27918  1.0000
  N   N4        1.0  0.86661  0.27918  0.13339  1.0000
  N   N5        1.0  0.27918  0.86661  0.72082  1.0000
  N   N6        1.0  0.13339  0.72082  0.86661  1.0000
