data_image0
_chemical_formula_structural       Pd4N6
_chemical_formula_sum              "Pd4 N6"
_cell_length_a       3.91262
_cell_length_b       3.91262
_cell_length_c       4.67412
_cell_angle_alpha    90
_cell_angle_beta     90
_cell_angle_gamma    110.705

_space_group_name_H-M_alt    "P 1"
_space_group_IT_number       1

loop_
  _space_group_symop_operation_xyz
  'x, y, z'

loop_
  _atom_site_type_symbol
  _atom_site_label
  _atom_site_symmetry_multiplicity
  _atom_site_fract_x
  _atom_site_fract_y
  _atom_site_fract_z
  _atom_site_occupancy
  Pd  Pd1       1.0  0.58253  0.41747  0.17870  1.0000
  Pd  Pd2       1.0  0.41747  0.58253  0.67870  1.0000
  Pd  Pd3       1.0  0.09775  0.90225  0.45979  1.0000
  Pd  Pd4       1.0  0.90225  0.09775  0.95979  1.0000
  N   N1        1.0  0.07347  0.39925  0.33415  1.0000
  N   N2        1.0  0.92653  0.60075  0.83415  1.0000
  N   N3        1.0  0.60075  0.92653  0.33415  1.0000
  N   N4        1.0  0.39925  0.07347  0.83415  1.0000
  N   N5        1.0  0.20753  0.79247  0.99221  1.0000
  N   N6        1.0  0.79247  0.20753  0.49221  1.0000
