data_image0
_chemical_formula_structural       Pd4N24
_chemical_formula_sum              "Pd4 N24"
_cell_length_a       6.18757
_cell_length_b       6.51227
_cell_length_c       10.6402
_cell_angle_alpha    90
_cell_angle_beta     90
_cell_angle_gamma    90

_space_group_name_H-M_alt    "P 1"
_space_group_IT_number       1

loop_
  _space_group_symop_operation_xyz
  'x, y, z'

loop_
  _atom_site_type_symbol
  _atom_site_label
  _atom_site_symmetry_multiplicity
  _atom_site_fract_x
  _atom_site_fract_y
  _atom_site_fract_z
  _atom_site_occupancy
  Pd  Pd1       1.0  0.23981  0.93630  0.52964  1.0000
  Pd  Pd2       1.0  0.76019  0.43630  0.47036  1.0000
  Pd  Pd3       1.0  0.23981  0.43630  0.97036  1.0000
  Pd  Pd4       1.0  0.76019  0.93630  0.02964  1.0000
  N   N1        1.0  0.96507  0.07726  0.58036  1.0000
  N   N2        1.0  0.03494  0.57726  0.41964  1.0000
  N   N3        1.0  0.96507  0.57726  0.91964  1.0000
  N   N4        1.0  0.03494  0.07726  0.08036  1.0000
  N   N5        1.0  0.90020  0.06951  0.68369  1.0000
  N   N6        1.0  0.09980  0.56951  0.31631  1.0000
  N   N7        1.0  0.90020  0.56951  0.81631  1.0000
  N   N8        1.0  0.09980  0.06951  0.18369  1.0000
  N   N9        1.0  0.82164  0.07440  0.77794  1.0000
  N   N10       1.0  0.17836  0.57440  0.22206  1.0000
  N   N11       1.0  0.82164  0.57440  0.72206  1.0000
  N   N12       1.0  0.17836  0.07440  0.27794  1.0000
  N   N13       1.0  0.51688  0.81422  0.46294  1.0000
  N   N14       1.0  0.48312  0.31422  0.53706  1.0000
  N   N15       1.0  0.51688  0.31422  0.03706  1.0000
  N   N16       1.0  0.48312  0.81422  0.96294  1.0000
  N   N17       1.0  0.59875  0.91539  0.38494  1.0000
  N   N18       1.0  0.40125  0.41539  0.61506  1.0000
  N   N19       1.0  0.59875  0.41539  0.11506  1.0000
  N   N20       1.0  0.40125  0.91539  0.88494  1.0000
  N   N21       1.0  0.68758  0.00271  0.31111  1.0000
  N   N22       1.0  0.31243  0.50271  0.68889  1.0000
  N   N23       1.0  0.68758  0.50271  0.18889  1.0000
  N   N24       1.0  0.31243  0.00271  0.81111  1.0000
