data_image0
_chemical_formula_structural       Pd2N10
_chemical_formula_sum              "Pd2 N10"
_cell_length_a       6.77155
_cell_length_b       3.56592
_cell_length_c       3.85888
_cell_angle_alpha    77.961
_cell_angle_beta     90
_cell_angle_gamma    90

_space_group_name_H-M_alt    "P 1"
_space_group_IT_number       1

loop_
  _space_group_symop_operation_xyz
  'x, y, z'

loop_
  _atom_site_type_symbol
  _atom_site_label
  _atom_site_symmetry_multiplicity
  _atom_site_fract_x
  _atom_site_fract_y
  _atom_site_fract_z
  _atom_site_occupancy
  Pd  Pd1       1.0  0.25000  0.99209  0.34804  1.0000
  Pd  Pd2       1.0  0.75000  0.00790  0.65196  1.0000
  N   N1        1.0  0.25000  0.71134  0.89950  1.0000
  N   N2        1.0  0.75000  0.28866  0.10050  1.0000
  N   N3        1.0  0.40933  0.38511  0.95233  1.0000
  N   N4        1.0  0.90933  0.61489  0.04767  1.0000
  N   N5        1.0  0.59067  0.61489  0.04767  1.0000
  N   N6        1.0  0.09067  0.38511  0.95233  1.0000
  N   N7        1.0  0.47025  0.29280  0.59708  1.0000
  N   N8        1.0  0.97025  0.70720  0.40292  1.0000
  N   N9        1.0  0.52975  0.70720  0.40292  1.0000
  N   N10       1.0  0.02975  0.29280  0.59708  1.0000
