data_image0
_chemical_formula_structural       N4Pd4
_chemical_formula_sum              "N4 Pd4"
_cell_length_a       4.50292
_cell_length_b       4.59926
_cell_length_c       5.13155
_cell_angle_alpha    90
_cell_angle_beta     90
_cell_angle_gamma    90

_space_group_name_H-M_alt    "P 1"
_space_group_IT_number       1

loop_
  _space_group_symop_operation_xyz
  'x, y, z'

loop_
  _atom_site_type_symbol
  _atom_site_label
  _atom_site_symmetry_multiplicity
  _atom_site_fract_x
  _atom_site_fract_y
  _atom_site_fract_z
  _atom_site_occupancy
  N   N1        1.0  0.30537  0.00090  0.25000  1.0000
  N   N2        1.0  0.69463  0.00090  0.75000  1.0000
  N   N3        1.0  0.16440  0.54653  0.75000  1.0000
  N   N4        1.0  0.83560  0.54653  0.25000  1.0000
  Pd  Pd1       1.0  0.00000  0.86038  0.00000  1.0000
  Pd  Pd2       1.0  0.00000  0.86038  0.50000  1.0000
  Pd  Pd3       1.0  0.24687  0.41208  0.25000  1.0000
  Pd  Pd4       1.0  0.75313  0.41208  0.75000  1.0000
