data_image0
_chemical_formula_structural       Pd16N32
_chemical_formula_sum              "Pd16 N32"
_cell_length_a       5.99609
_cell_length_b       15.2479
_cell_length_c       15.244
_cell_angle_alpha    88.4384
_cell_angle_beta     83.8716
_cell_angle_gamma    83.9713

_space_group_name_H-M_alt    "P 1"
_space_group_IT_number       1

loop_
  _space_group_symop_operation_xyz
  'x, y, z'

loop_
  _atom_site_type_symbol
  _atom_site_label
  _atom_site_symmetry_multiplicity
  _atom_site_fract_x
  _atom_site_fract_y
  _atom_site_fract_z
  _atom_site_occupancy
  Pd  Pd1       1.0  0.13521  0.39621  0.74546  1.0000
  Pd  Pd2       1.0  0.86479  0.60379  0.25454  1.0000
  Pd  Pd3       1.0  0.41456  0.43860  0.55822  1.0000
  Pd  Pd4       1.0  0.58544  0.56140  0.44178  1.0000
  Pd  Pd5       1.0  0.20961  0.10054  0.75018  1.0000
  Pd  Pd6       1.0  0.79039  0.89946  0.24982  1.0000
  Pd  Pd7       1.0  0.13632  0.24577  0.89603  1.0000
  Pd  Pd8       1.0  0.86368  0.75423  0.10397  1.0000
  Pd  Pd9       1.0  0.04045  0.06039  0.56046  1.0000
  Pd  Pd10      1.0  0.95955  0.93961  0.43953  1.0000
  Pd  Pd11      1.0  0.96187  0.43938  0.93940  1.0000
  Pd  Pd12      1.0  0.03813  0.56062  0.06060  1.0000
  Pd  Pd13      1.0  0.41518  0.05821  0.93850  1.0000
  Pd  Pd14      1.0  0.58482  0.94179  0.06150  1.0000
  Pd  Pd15      1.0  0.20962  0.24993  0.60052  1.0000
  Pd  Pd16      1.0  0.79037  0.75007  0.39948  1.0000
  N   N1        1.0  0.79807  0.01775  0.51776  1.0000
  N   N2        1.0  0.20193  0.98224  0.48224  1.0000
  N   N3        1.0  0.93623  0.46396  0.82135  1.0000
  N   N4        1.0  0.06377  0.53604  0.17865  1.0000
  N   N5        1.0  0.32222  0.17477  0.96219  1.0000
  N   N6        1.0  0.67777  0.82523  0.03781  1.0000
  N   N7        1.0  0.68828  0.47839  0.52162  1.0000
  N   N8        1.0  0.31172  0.52161  0.47838  1.0000
  N   N9        1.0  0.06709  0.17802  0.53491  1.0000
  N   N10       1.0  0.93291  0.82198  0.46509  1.0000
  N   N11       1.0  0.31150  0.97842  0.02159  1.0000
  N   N12       1.0  0.68850  0.02158  0.97841  1.0000
  N   N13       1.0  0.28533  0.32455  0.82398  1.0000
  N   N14       1.0  0.71467  0.67545  0.17601  1.0000
  N   N15       1.0  0.32093  0.46285  0.67466  1.0000
  N   N16       1.0  0.67907  0.53715  0.32534  1.0000
  N   N17       1.0  0.38970  0.32247  0.53409  1.0000
  N   N18       1.0  0.61030  0.67753  0.46590  1.0000
  N   N19       1.0  0.79800  0.51806  0.01806  1.0000
  N   N20       1.0  0.20200  0.48194  0.98194  1.0000
  N   N21       1.0  0.06731  0.03505  0.67812  1.0000
  N   N22       1.0  0.93269  0.96495  0.32188  1.0000
  N   N23       1.0  0.01464  0.16979  0.82703  1.0000
  N   N24       1.0  0.98536  0.83021  0.17297  1.0000
  N   N25       1.0  0.36474  0.17391  0.67386  1.0000
  N   N26       1.0  0.63527  0.82609  0.32614  1.0000
  N   N27       1.0  0.93655  0.32128  0.96389  1.0000
  N   N28       1.0  0.06345  0.67872  0.03611  1.0000
  N   N29       1.0  0.01426  0.32645  0.66998  1.0000
  N   N30       1.0  0.98574  0.67354  0.33002  1.0000
  N   N31       1.0  0.38984  0.03405  0.82238  1.0000
  N   N32       1.0  0.61016  0.96595  0.17762  1.0000
