data_image0
_chemical_formula_structural       S8Pd2
_chemical_formula_sum              "S8 Pd2"
_cell_length_a       4.87366
_cell_length_b       4.88772
_cell_length_c       7.40144
_cell_angle_alpha    80.3638
_cell_angle_beta     90
_cell_angle_gamma    90

_space_group_name_H-M_alt    "P 1"
_space_group_IT_number       1

loop_
  _space_group_symop_operation_xyz
  'x, y, z'

loop_
  _atom_site_type_symbol
  _atom_site_label
  _atom_site_symmetry_multiplicity
  _atom_site_fract_x
  _atom_site_fract_y
  _atom_site_fract_z
  _atom_site_occupancy
  S   S1        1.0  0.19034  0.21577  0.25140  1.0000
  S   S2        1.0  0.69034  0.78423  0.24860  1.0000
  S   S3        1.0  0.80966  0.78423  0.74860  1.0000
  S   S4        1.0  0.30966  0.21577  0.75140  1.0000
  S   S5        1.0  0.65198  0.37738  0.91118  1.0000
  S   S6        1.0  0.15198  0.62262  0.58882  1.0000
  S   S7        1.0  0.34802  0.62262  0.08882  1.0000
  S   S8        1.0  0.84802  0.37738  0.41118  1.0000
  Pd  Pd1       1.0  0.50000  0.00000  0.50000  1.0000
  Pd  Pd2       1.0  0.00000  0.00000  0.00000  1.0000
