data_image0
_chemical_formula_structural       Pd5S34
_chemical_formula_sum              "Pd5 S34"
_cell_length_a       8.87221
_cell_length_b       8.87221
_cell_length_c       8.87221
_cell_angle_alpha    59.9703
_cell_angle_beta     59.9703
_cell_angle_gamma    59.9703

_space_group_name_H-M_alt    "P 1"
_space_group_IT_number       1

loop_
  _space_group_symop_operation_xyz
  'x, y, z'

loop_
  _atom_site_type_symbol
  _atom_site_label
  _atom_site_symmetry_multiplicity
  _atom_site_fract_x
  _atom_site_fract_y
  _atom_site_fract_z
  _atom_site_occupancy
  Pd  Pd1       1.0  0.37499  0.37499  0.37499  1.0000
  Pd  Pd2       1.0  0.62501  0.62501  0.62501  1.0000
  Pd  Pd3       1.0  0.50000  0.00000  0.00000  1.0000
  Pd  Pd4       1.0  0.00000  0.00000  0.50000  1.0000
  Pd  Pd5       1.0  0.00000  0.50000  0.00000  1.0000
  S   S1        1.0  0.78196  0.78196  0.78196  1.0000
  S   S2        1.0  0.15506  0.78220  0.78219  1.0000
  S   S3        1.0  0.78219  0.78219  0.15506  1.0000
  S   S4        1.0  0.78219  0.15506  0.78219  1.0000
  S   S5        1.0  0.21804  0.21804  0.21804  1.0000
  S   S6        1.0  0.84494  0.21781  0.21780  1.0000
  S   S7        1.0  0.21780  0.21781  0.84494  1.0000
  S   S8        1.0  0.21781  0.84494  0.21780  1.0000
  S   S9        1.0  0.87549  0.87549  0.87549  1.0000
  S   S10       1.0  0.12451  0.12451  0.12451  1.0000
  S   S11       1.0  0.62834  0.00604  0.62834  1.0000
  S   S12       1.0  0.23574  0.62927  0.00637  1.0000
  S   S13       1.0  0.00637  0.62927  0.23574  1.0000
  S   S14       1.0  0.62918  0.23611  0.62918  1.0000
  S   S15       1.0  0.62927  0.00637  0.23574  1.0000
  S   S16       1.0  0.00604  0.62834  0.62834  1.0000
  S   S17       1.0  0.23611  0.62918  0.62918  1.0000
  S   S18       1.0  0.62927  0.23574  0.00637  1.0000
  S   S19       1.0  0.23574  0.00637  0.62927  1.0000
  S   S20       1.0  0.62918  0.62918  0.23611  1.0000
  S   S21       1.0  0.62834  0.62834  0.00604  1.0000
  S   S22       1.0  0.00637  0.23574  0.62927  1.0000
  S   S23       1.0  0.37166  0.99396  0.37166  1.0000
  S   S24       1.0  0.76426  0.37073  0.99363  1.0000
  S   S25       1.0  0.99363  0.37073  0.76426  1.0000
  S   S26       1.0  0.37082  0.76389  0.37082  1.0000
  S   S27       1.0  0.37073  0.99363  0.76426  1.0000
  S   S28       1.0  0.99396  0.37166  0.37166  1.0000
  S   S29       1.0  0.76389  0.37082  0.37082  1.0000
  S   S30       1.0  0.37073  0.76426  0.99363  1.0000
  S   S31       1.0  0.76426  0.99363  0.37073  1.0000
  S   S32       1.0  0.37082  0.37082  0.76389  1.0000
  S   S33       1.0  0.37166  0.37166  0.99396  1.0000
  S   S34       1.0  0.99363  0.76426  0.37073  1.0000
