data_image0
_chemical_formula_structural       Pd4S8
_chemical_formula_sum              "Pd4 S8"
_cell_length_a       3.57439
_cell_length_b       6.11161
_cell_length_c       9.70574
_cell_angle_alpha    90
_cell_angle_beta     90
_cell_angle_gamma    90

_space_group_name_H-M_alt    "P 1"
_space_group_IT_number       1

loop_
  _space_group_symop_operation_xyz
  'x, y, z'

loop_
  _atom_site_type_symbol
  _atom_site_label
  _atom_site_symmetry_multiplicity
  _atom_site_fract_x
  _atom_site_fract_y
  _atom_site_fract_z
  _atom_site_occupancy
  Pd  Pd1       1.0  0.29553  0.25000  0.50000  1.0000
  Pd  Pd2       1.0  0.70447  0.75000  0.00000  1.0000
  Pd  Pd3       1.0  0.29553  0.25000  0.00000  1.0000
  Pd  Pd4       1.0  0.70447  0.75000  0.50000  1.0000
  S   S1        1.0  0.79182  0.08030  0.66375  1.0000
  S   S2        1.0  0.20818  0.91970  0.16375  1.0000
  S   S3        1.0  0.79182  0.41970  0.16375  1.0000
  S   S4        1.0  0.20818  0.58030  0.66375  1.0000
  S   S5        1.0  0.79182  0.08030  0.83625  1.0000
  S   S6        1.0  0.20818  0.91970  0.33625  1.0000
  S   S7        1.0  0.79182  0.41970  0.33625  1.0000
  S   S8        1.0  0.20818  0.58030  0.83625  1.0000
