data_image0
_chemical_formula_structural       Pd2S8
_chemical_formula_sum              "Pd2 S8"
_cell_length_a       5.23688
_cell_length_b       7.65057
_cell_length_c       8.51211
_cell_angle_alpha    86.7231
_cell_angle_beta     90
_cell_angle_gamma    90

_space_group_name_H-M_alt    "P 1"
_space_group_IT_number       1

loop_
  _space_group_symop_operation_xyz
  'x, y, z'

loop_
  _atom_site_type_symbol
  _atom_site_label
  _atom_site_symmetry_multiplicity
  _atom_site_fract_x
  _atom_site_fract_y
  _atom_site_fract_z
  _atom_site_occupancy
  Pd  Pd1       1.0  0.25000  0.61796  0.65166  1.0000
  Pd  Pd2       1.0  0.75000  0.38204  0.34834  1.0000
  S   S1        1.0  0.52569  0.74688  0.83495  1.0000
  S   S2        1.0  0.02569  0.25312  0.16505  1.0000
  S   S3        1.0  0.47431  0.25312  0.16505  1.0000
  S   S4        1.0  0.97431  0.74688  0.83495  1.0000
  S   S5        1.0  0.25000  0.74028  0.38738  1.0000
  S   S6        1.0  0.75000  0.25972  0.61262  1.0000
  S   S7        1.0  0.25000  0.30306  0.65829  1.0000
  S   S8        1.0  0.75000  0.69694  0.34171  1.0000
