data_image0
_chemical_formula_structural       Pd2S4
_chemical_formula_sum              "Pd2 S4"
_cell_length_a       6.66419
_cell_length_b       6.66419
_cell_length_c       6.66419
_cell_angle_alpha    152.052
_cell_angle_beta     151.205
_cell_angle_gamma    40.5608

_space_group_name_H-M_alt    "P 1"
_space_group_IT_number       1

loop_
  _space_group_symop_operation_xyz
  'x, y, z'

loop_
  _atom_site_type_symbol
  _atom_site_label
  _atom_site_symmetry_multiplicity
  _atom_site_fract_x
  _atom_site_fract_y
  _atom_site_fract_z
  _atom_site_occupancy
  Pd  Pd1       1.0  0.62283  0.37283  0.25000  1.0000
  Pd  Pd2       1.0  0.37717  0.62716  0.75000  1.0000
  S   S1        1.0  0.04727  0.79727  0.25000  1.0000
  S   S2        1.0  0.95273  0.20274  0.75000  1.0000
  S   S3        1.0  0.20815  0.95815  0.25000  1.0000
  S   S4        1.0  0.79185  0.04185  0.75000  1.0000
