data_image0
_chemical_formula_structural       PdS34
_chemical_formula_sum              "Pd1 S34"
_cell_length_a       9.00432
_cell_length_b       9.00432
_cell_length_c       9.00432
_cell_angle_alpha    60
_cell_angle_beta     60
_cell_angle_gamma    60

_space_group_name_H-M_alt    "P 1"
_space_group_IT_number       1

loop_
  _space_group_symop_operation_xyz
  'x, y, z'

loop_
  _atom_site_type_symbol
  _atom_site_label
  _atom_site_symmetry_multiplicity
  _atom_site_fract_x
  _atom_site_fract_y
  _atom_site_fract_z
  _atom_site_occupancy
  Pd  Pd1       1.0  0.75000  0.75000  0.75000  1.0000
  S   S1        1.0  0.00000  0.00000  0.00000  1.0000
  S   S2        1.0  0.25000  0.25000  0.25000  1.0000
  S   S3        1.0  0.36110  0.75435  0.75435  1.0000
  S   S4        1.0  0.75435  0.36110  0.13019  1.0000
  S   S5        1.0  0.75435  0.13019  0.36110  1.0000
  S   S6        1.0  0.13019  0.75435  0.75435  1.0000
  S   S7        1.0  0.75435  0.75435  0.36110  1.0000
  S   S8        1.0  0.36110  0.13019  0.75435  1.0000
  S   S9        1.0  0.13019  0.36110  0.75435  1.0000
  S   S10       1.0  0.75435  0.75435  0.13019  1.0000
  S   S11       1.0  0.75435  0.36110  0.75435  1.0000
  S   S12       1.0  0.13019  0.75435  0.36110  1.0000
  S   S13       1.0  0.36110  0.75435  0.13019  1.0000
  S   S14       1.0  0.75435  0.13019  0.75435  1.0000
  S   S15       1.0  0.88913  0.49575  0.49575  1.0000
  S   S16       1.0  0.49575  0.88913  0.11938  1.0000
  S   S17       1.0  0.49575  0.11938  0.88913  1.0000
  S   S18       1.0  0.11938  0.49575  0.49575  1.0000
  S   S19       1.0  0.49575  0.49575  0.88913  1.0000
  S   S20       1.0  0.88913  0.11938  0.49575  1.0000
  S   S21       1.0  0.11938  0.88913  0.49575  1.0000
  S   S22       1.0  0.49575  0.49575  0.11938  1.0000
  S   S23       1.0  0.49575  0.88913  0.49575  1.0000
  S   S24       1.0  0.11938  0.49575  0.88913  1.0000
  S   S25       1.0  0.88913  0.49575  0.11938  1.0000
  S   S26       1.0  0.49575  0.11938  0.49575  1.0000
  S   S27       1.0  0.27685  0.90772  0.90772  1.0000
  S   S28       1.0  0.90772  0.27685  0.90772  1.0000
  S   S29       1.0  0.90772  0.90772  0.27685  1.0000
  S   S30       1.0  0.90772  0.90772  0.90772  1.0000
  S   S31       1.0  0.97350  0.34217  0.34217  1.0000
  S   S32       1.0  0.34217  0.97350  0.34217  1.0000
  S   S33       1.0  0.34217  0.34217  0.97350  1.0000
  S   S34       1.0  0.34217  0.34217  0.34217  1.0000
