data_image0
_chemical_formula_structural       Pd12S24
_chemical_formula_sum              "Pd12 S24"
_cell_length_a       12.5413
_cell_length_b       12.5413
_cell_length_c       12.1476
_cell_angle_alpha    81.326
_cell_angle_beta     81.326
_cell_angle_gamma    111.336

_space_group_name_H-M_alt    "P 1"
_space_group_IT_number       1

loop_
  _space_group_symop_operation_xyz
  'x, y, z'

loop_
  _atom_site_type_symbol
  _atom_site_label
  _atom_site_symmetry_multiplicity
  _atom_site_fract_x
  _atom_site_fract_y
  _atom_site_fract_z
  _atom_site_occupancy
  Pd  Pd1       1.0  0.40408  0.89155  0.89297  1.0000
  Pd  Pd2       1.0  0.89155  0.40408  0.89297  1.0000
  Pd  Pd3       1.0  0.59592  0.10845  0.10703  1.0000
  Pd  Pd4       1.0  0.10845  0.59592  0.10703  1.0000
  Pd  Pd5       1.0  0.29433  0.09405  0.33203  1.0000
  Pd  Pd6       1.0  0.09405  0.29433  0.33203  1.0000
  Pd  Pd7       1.0  0.70567  0.90595  0.66797  1.0000
  Pd  Pd8       1.0  0.90595  0.70567  0.66797  1.0000
  Pd  Pd9       1.0  0.20026  0.99837  0.69058  1.0000
  Pd  Pd10      1.0  0.99837  0.20026  0.69058  1.0000
  Pd  Pd11      1.0  0.79974  0.00163  0.30942  1.0000
  Pd  Pd12      1.0  0.00163  0.79974  0.30942  1.0000
  S   S1        1.0  0.27824  0.72176  0.00000  1.0000
  S   S2        1.0  0.72176  0.27824  0.00000  1.0000
  S   S3        1.0  0.46946  0.14488  0.22419  1.0000
  S   S4        1.0  0.14488  0.46946  0.22419  1.0000
  S   S5        1.0  0.53054  0.85512  0.77581  1.0000
  S   S6        1.0  0.85512  0.53054  0.77581  1.0000
  S   S7        1.0  0.12020  0.12020  0.73194  1.0000
  S   S8        1.0  0.87980  0.87980  0.26806  1.0000
  S   S9        1.0  0.32025  0.99281  0.80349  1.0000
  S   S10       1.0  0.99281  0.32025  0.80349  1.0000
  S   S11       1.0  0.67975  0.00719  0.19651  1.0000
  S   S12       1.0  0.00719  0.67975  0.19651  1.0000
  S   S13       1.0  0.06096  0.82209  0.71788  1.0000
  S   S14       1.0  0.82209  0.06096  0.71788  1.0000
  S   S15       1.0  0.93904  0.17791  0.28212  1.0000
  S   S16       1.0  0.17791  0.93904  0.28212  1.0000
  S   S17       1.0  0.30158  0.05638  0.51297  1.0000
  S   S18       1.0  0.05638  0.30158  0.51297  1.0000
  S   S19       1.0  0.69842  0.94362  0.48703  1.0000
  S   S20       1.0  0.94362  0.69842  0.48703  1.0000
  S   S21       1.0  0.50000  0.00000  0.00000  1.0000
  S   S22       1.0  0.00000  0.50000  0.00000  1.0000
  S   S23       1.0  0.23828  0.23828  0.28807  1.0000
  S   S24       1.0  0.76172  0.76172  0.71193  1.0000
