data_image0
_chemical_formula_structural       Pd4S10
_chemical_formula_sum              "Pd4 S10"
_cell_length_a       10.5761
_cell_length_b       10.5761
_cell_length_c       10.5761
_cell_angle_alpha    132.199
_cell_angle_beta     132.199
_cell_angle_gamma    69.9145

_space_group_name_H-M_alt    "P 1"
_space_group_IT_number       1

loop_
  _space_group_symop_operation_xyz
  'x, y, z'

loop_
  _atom_site_type_symbol
  _atom_site_label
  _atom_site_symmetry_multiplicity
  _atom_site_fract_x
  _atom_site_fract_y
  _atom_site_fract_z
  _atom_site_occupancy
  Pd  Pd1       1.0  0.50650  0.00650  0.50000  1.0000
  Pd  Pd2       1.0  0.75650  0.75650  0.00000  1.0000
  Pd  Pd3       1.0  0.99350  0.49350  0.50000  1.0000
  Pd  Pd4       1.0  0.24350  0.24350  0.00000  1.0000
  S   S1        1.0  0.37500  0.39520  0.52020  1.0000
  S   S2        1.0  0.87500  0.85480  0.47980  1.0000
  S   S3        1.0  0.60480  0.12500  0.97980  1.0000
  S   S4        1.0  0.14520  0.62500  0.02020  1.0000
  S   S5        1.0  0.37500  0.85480  0.97980  1.0000
  S   S6        1.0  0.87500  0.39520  0.02020  1.0000
  S   S7        1.0  0.60480  0.62500  0.47980  1.0000
  S   S8        1.0  0.14520  0.12500  0.52020  1.0000
  S   S9        1.0  0.75000  0.25000  0.50000  1.0000
  S   S10       1.0  0.00000  0.00000  0.00000  1.0000
