data_image0
_chemical_formula_structural       S9Pd4
_chemical_formula_sum              "S9 Pd4"
_cell_length_a       12.5438
_cell_length_b       12.5438
_cell_length_c       7.00827
_cell_angle_alpha    75.1881
_cell_angle_beta     75.1881
_cell_angle_gamma    26.9068

_space_group_name_H-M_alt    "P 1"
_space_group_IT_number       1

loop_
  _space_group_symop_operation_xyz
  'x, y, z'

loop_
  _atom_site_type_symbol
  _atom_site_label
  _atom_site_symmetry_multiplicity
  _atom_site_fract_x
  _atom_site_fract_y
  _atom_site_fract_z
  _atom_site_occupancy
  S   S1        1.0  0.76711  0.76710  0.84259  1.0000
  S   S2        1.0  0.69206  0.69206  0.47288  1.0000
  S   S3        1.0  0.30794  0.30794  0.52712  1.0000
  S   S4        1.0  0.45645  0.45645  0.32586  1.0000
  S   S5        1.0  0.23290  0.23289  0.15741  1.0000
  S   S6        1.0  0.54355  0.54355  0.67414  1.0000
  S   S7        1.0  0.00000  0.00000  0.00000  1.0000
  S   S8        1.0  0.08590  0.08590  0.35935  1.0000
  S   S9        1.0  0.91410  0.91410  0.64065  1.0000
  Pd  Pd1       1.0  0.38571  0.38571  0.93406  1.0000
  Pd  Pd2       1.0  0.61429  0.61429  0.06594  1.0000
  Pd  Pd3       1.0  0.84918  0.84918  0.21668  1.0000
  Pd  Pd4       1.0  0.15082  0.15082  0.78332  1.0000
