data_image0
_chemical_formula_structural       S8Pd8
_chemical_formula_sum              "S8 Pd8"
_cell_length_a       7.61415
_cell_length_b       7.61415
_cell_length_c       7.61415
_cell_angle_alpha    129.337
_cell_angle_beta     129.337
_cell_angle_gamma    74.4689

_space_group_name_H-M_alt    "P 1"
_space_group_IT_number       1

loop_
  _space_group_symop_operation_xyz
  'x, y, z'

loop_
  _atom_site_type_symbol
  _atom_site_label
  _atom_site_symmetry_multiplicity
  _atom_site_fract_x
  _atom_site_fract_y
  _atom_site_fract_z
  _atom_site_occupancy
  S   S1        1.0  0.12500  0.06382  0.43882  1.0000
  S   S2        1.0  0.81382  0.87500  0.43882  1.0000
  S   S3        1.0  0.43618  0.37500  0.56118  1.0000
  S   S4        1.0  0.62500  0.68618  0.56118  1.0000
  S   S5        1.0  0.62500  0.18618  0.06118  1.0000
  S   S6        1.0  0.93618  0.37500  0.06118  1.0000
  S   S7        1.0  0.31382  0.87500  0.93882  1.0000
  S   S8        1.0  0.12500  0.56382  0.93882  1.0000
  Pd  Pd1       1.0  0.56583  0.06583  0.63167  1.0000
  Pd  Pd2       1.0  0.81583  0.68417  0.00000  1.0000
  Pd  Pd3       1.0  0.68417  0.81583  0.00000  1.0000
  Pd  Pd4       1.0  0.43417  0.93417  0.36833  1.0000
  Pd  Pd5       1.0  0.18417  0.18417  0.86833  1.0000
  Pd  Pd6       1.0  0.93417  0.56583  0.50000  1.0000
  Pd  Pd7       1.0  0.06583  0.43417  0.50000  1.0000
  Pd  Pd8       1.0  0.31583  0.31583  0.13167  1.0000
