data_image0
_chemical_formula_structural       S12Pd8
_chemical_formula_sum              "S12 Pd8"
_cell_length_a       8.93075
_cell_length_b       8.93075
_cell_length_c       8.93075
_cell_angle_alpha    90
_cell_angle_beta     90
_cell_angle_gamma    90

_space_group_name_H-M_alt    "P 1"
_space_group_IT_number       1

loop_
  _space_group_symop_operation_xyz
  'x, y, z'

loop_
  _atom_site_type_symbol
  _atom_site_label
  _atom_site_symmetry_multiplicity
  _atom_site_fract_x
  _atom_site_fract_y
  _atom_site_fract_z
  _atom_site_occupancy
  S   S1        1.0  0.32172  0.32172  0.00000  1.0000
  S   S2        1.0  0.67828  0.67828  0.00000  1.0000
  S   S3        1.0  0.67828  0.32172  0.00000  1.0000
  S   S4        1.0  0.32172  0.67828  0.00000  1.0000
  S   S5        1.0  0.00000  0.32172  0.67828  1.0000
  S   S6        1.0  0.00000  0.67828  0.32172  1.0000
  S   S7        1.0  0.00000  0.67828  0.67828  1.0000
  S   S8        1.0  0.00000  0.32172  0.32172  1.0000
  S   S9        1.0  0.32172  0.00000  0.67828  1.0000
  S   S10       1.0  0.67828  0.00000  0.32172  1.0000
  S   S11       1.0  0.32172  0.00000  0.32172  1.0000
  S   S12       1.0  0.67828  0.00000  0.67828  1.0000
  Pd  Pd1       1.0  0.22142  0.22142  0.77858  1.0000
  Pd  Pd2       1.0  0.77858  0.77858  0.77858  1.0000
  Pd  Pd3       1.0  0.77858  0.22142  0.22142  1.0000
  Pd  Pd4       1.0  0.22142  0.77858  0.22142  1.0000
  Pd  Pd5       1.0  0.77858  0.77858  0.22142  1.0000
  Pd  Pd6       1.0  0.22142  0.22142  0.22142  1.0000
  Pd  Pd7       1.0  0.22142  0.77858  0.77858  1.0000
  Pd  Pd8       1.0  0.77858  0.22142  0.77858  1.0000
