data_image0
_chemical_formula_structural       S8Pd6
_chemical_formula_sum              "S8 Pd6"
_cell_length_a       8.76319
_cell_length_b       8.76319
_cell_length_c       8.76319
_cell_angle_alpha    134.245
_cell_angle_beta     122.47
_cell_angle_gamma    76.4325

_space_group_name_H-M_alt    "P 1"
_space_group_IT_number       1

loop_
  _space_group_symop_operation_xyz
  'x, y, z'

loop_
  _atom_site_type_symbol
  _atom_site_label
  _atom_site_symmetry_multiplicity
  _atom_site_fract_x
  _atom_site_fract_y
  _atom_site_fract_z
  _atom_site_occupancy
  S   S1        1.0  0.24996  0.66138  0.09026  1.0000
  S   S2        1.0  0.78970  0.78970  1.00000  1.0000
  S   S3        1.0  0.19698  0.69698  0.50000  1.0000
  S   S4        1.0  0.21030  0.21030  0.00000  1.0000
  S   S5        1.0  0.42889  0.33862  0.58859  1.0000
  S   S6        1.0  0.57111  0.15970  0.90973  1.0000
  S   S7        1.0  0.75004  0.84030  0.41141  1.0000
  S   S8        1.0  0.80302  0.30302  0.50000  1.0000
  Pd  Pd1       1.0  0.43760  0.89167  0.05249  1.0000
  Pd  Pd2       1.0  0.16082  0.10833  0.54592  1.0000
  Pd  Pd3       1.0  0.00000  0.20891  0.20891  1.0000
  Pd  Pd4       1.0  0.83918  0.38510  0.94751  1.0000
  Pd  Pd5       1.0  0.56240  0.61490  0.45407  1.0000
  Pd  Pd6       1.0  0.00000  0.79109  0.79109  1.0000
