data_image0
_chemical_formula_structural       PdS11
_chemical_formula_sum              "Pd1 S11"
_cell_length_a       5.59269
_cell_length_b       5.59269
_cell_length_c       5.59269
_cell_angle_alpha    55.8064
_cell_angle_beta     55.8064
_cell_angle_gamma    55.8064

_space_group_name_H-M_alt    "P 1"
_space_group_IT_number       1

loop_
  _space_group_symop_operation_xyz
  'x, y, z'

loop_
  _atom_site_type_symbol
  _atom_site_label
  _atom_site_symmetry_multiplicity
  _atom_site_fract_x
  _atom_site_fract_y
  _atom_site_fract_z
  _atom_site_occupancy
  Pd  Pd1       1.0  0.46337  0.46337  0.46337  1.0000
  S   S1        1.0  0.37494  0.37494  0.01589  1.0000
  S   S2        1.0  0.01589  0.37494  0.37494  1.0000
  S   S3        1.0  0.37494  0.01589  0.37494  1.0000
  S   S4        1.0  0.41018  0.01393  0.01393  1.0000
  S   S5        1.0  0.01393  0.41018  0.01393  1.0000
  S   S6        1.0  0.01393  0.01393  0.41018  1.0000
  S   S7        1.0  0.03200  0.03200  0.03200  1.0000
  S   S8        1.0  0.77796  0.77796  0.77796  1.0000
  S   S9        1.0  0.41374  0.79467  0.79467  1.0000
  S   S10       1.0  0.79467  0.41374  0.79467  1.0000
  S   S11       1.0  0.79467  0.79467  0.41374  1.0000
