data_image0
_chemical_formula_structural       PdS5
_chemical_formula_sum              "Pd1 S5"
_cell_length_a       6.40167
_cell_length_b       6.40167
_cell_length_c       6.40167
_cell_angle_alpha    100.122
_cell_angle_beta     100.122
_cell_angle_gamma    130.429

_space_group_name_H-M_alt    "P 1"
_space_group_IT_number       1

loop_
  _space_group_symop_operation_xyz
  'x, y, z'

loop_
  _atom_site_type_symbol
  _atom_site_label
  _atom_site_symmetry_multiplicity
  _atom_site_fract_x
  _atom_site_fract_y
  _atom_site_fract_z
  _atom_site_occupancy
  Pd  Pd1       1.0  0.00000  0.00000  0.00000  1.0000
  S   S1        1.0  0.89843  0.27472  0.17315  1.0000
  S   S2        1.0  0.10157  0.72528  0.82685  1.0000
  S   S3        1.0  0.27472  0.10157  0.37630  1.0000
  S   S4        1.0  0.72528  0.89843  0.62370  1.0000
  S   S5        1.0  0.50000  0.50000  0.00000  1.0000
