data_image0
_chemical_formula_structural       Pd10S18
_chemical_formula_sum              "Pd10 S18"
_cell_length_a       5.38657
_cell_length_b       5.38657
_cell_length_c       23.5451
_cell_angle_alpha    90
_cell_angle_beta     90
_cell_angle_gamma    133.85

_space_group_name_H-M_alt    "P 1"
_space_group_IT_number       1

loop_
  _space_group_symop_operation_xyz
  'x, y, z'

loop_
  _atom_site_type_symbol
  _atom_site_label
  _atom_site_symmetry_multiplicity
  _atom_site_fract_x
  _atom_site_fract_y
  _atom_site_fract_z
  _atom_site_occupancy
  Pd  Pd1       1.0  0.34938  0.65062  0.04144  1.0000
  Pd  Pd2       1.0  0.65062  0.34938  0.95856  1.0000
  Pd  Pd3       1.0  0.34938  0.65062  0.45856  1.0000
  Pd  Pd4       1.0  0.65062  0.34938  0.54144  1.0000
  Pd  Pd5       1.0  0.84357  0.15643  0.83282  1.0000
  Pd  Pd6       1.0  0.15643  0.84357  0.16718  1.0000
  Pd  Pd7       1.0  0.84357  0.15643  0.66718  1.0000
  Pd  Pd8       1.0  0.15643  0.84357  0.33282  1.0000
  Pd  Pd9       1.0  0.87180  0.12820  0.25000  1.0000
  Pd  Pd10      1.0  0.12820  0.87180  0.75000  1.0000
  S   S1        1.0  0.45553  0.54447  0.16078  1.0000
  S   S2        1.0  0.54447  0.45553  0.83922  1.0000
  S   S3        1.0  0.45553  0.54447  0.33922  1.0000
  S   S4        1.0  0.54447  0.45553  0.66078  1.0000
  S   S5        1.0  0.95248  0.04752  0.95289  1.0000
  S   S6        1.0  0.04751  0.95248  0.04711  1.0000
  S   S7        1.0  0.95248  0.04752  0.54711  1.0000
  S   S8        1.0  0.04751  0.95248  0.45289  1.0000
  S   S9        1.0  0.86581  0.13419  0.12310  1.0000
  S   S10       1.0  0.13419  0.86581  0.87690  1.0000
  S   S11       1.0  0.86581  0.13419  0.37690  1.0000
  S   S12       1.0  0.13419  0.86581  0.62310  1.0000
  S   S13       1.0  0.36298  0.63702  0.91590  1.0000
  S   S14       1.0  0.63702  0.36298  0.08410  1.0000
  S   S15       1.0  0.36298  0.63702  0.58410  1.0000
  S   S16       1.0  0.63702  0.36298  0.41590  1.0000
  S   S17       1.0  0.42263  0.57737  0.75000  1.0000
  S   S18       1.0  0.57737  0.42263  0.25000  1.0000
