data_image0
_chemical_formula_structural       Pd4S16
_chemical_formula_sum              "Pd4 S16"
_cell_length_a       9.37554
_cell_length_b       11.7791
_cell_length_c       12.7652
_cell_angle_alpha    90
_cell_angle_beta     90
_cell_angle_gamma    90

_space_group_name_H-M_alt    "P 1"
_space_group_IT_number       1

loop_
  _space_group_symop_operation_xyz
  'x, y, z'

loop_
  _atom_site_type_symbol
  _atom_site_label
  _atom_site_symmetry_multiplicity
  _atom_site_fract_x
  _atom_site_fract_y
  _atom_site_fract_z
  _atom_site_occupancy
  Pd  Pd1       1.0  0.60463  0.90585  0.25000  1.0000
  Pd  Pd2       1.0  0.39537  0.09415  0.75000  1.0000
  Pd  Pd3       1.0  0.89537  0.90585  0.75000  1.0000
  Pd  Pd4       1.0  0.10463  0.09415  0.25000  1.0000
  S   S1        1.0  0.88181  0.47560  0.66887  1.0000
  S   S2        1.0  0.11819  0.52440  0.16887  1.0000
  S   S3        1.0  0.61819  0.47560  0.33113  1.0000
  S   S4        1.0  0.38181  0.52440  0.83113  1.0000
  S   S5        1.0  0.11819  0.52440  0.33113  1.0000
  S   S6        1.0  0.88181  0.47560  0.83113  1.0000
  S   S7        1.0  0.38181  0.52440  0.66887  1.0000
  S   S8        1.0  0.61819  0.47560  0.16887  1.0000
  S   S9        1.0  0.63012  0.62650  0.12987  1.0000
  S   S10       1.0  0.36988  0.37350  0.62987  1.0000
  S   S11       1.0  0.86988  0.62650  0.87014  1.0000
  S   S12       1.0  0.13012  0.37350  0.37013  1.0000
  S   S13       1.0  0.36988  0.37350  0.87014  1.0000
  S   S14       1.0  0.63012  0.62650  0.37013  1.0000
  S   S15       1.0  0.13012  0.37350  0.12987  1.0000
  S   S16       1.0  0.86988  0.62650  0.62987  1.0000
