data_image0
_chemical_formula_structural       Pd4S20
_chemical_formula_sum              "Pd4 S20"
_cell_length_a       10.8773
_cell_length_b       11.9463
_cell_length_c       15.2324
_cell_angle_alpha    93.054
_cell_angle_beta     108.531
_cell_angle_gamma    93.7075

_space_group_name_H-M_alt    "P 1"
_space_group_IT_number       1

loop_
  _space_group_symop_operation_xyz
  'x, y, z'

loop_
  _atom_site_type_symbol
  _atom_site_label
  _atom_site_symmetry_multiplicity
  _atom_site_fract_x
  _atom_site_fract_y
  _atom_site_fract_z
  _atom_site_occupancy
  Pd  Pd1       1.0  0.64180  0.87715  0.10208  1.0000
  Pd  Pd2       1.0  0.35820  0.12285  0.89792  1.0000
  Pd  Pd3       1.0  0.57030  0.91564  0.39368  1.0000
  Pd  Pd4       1.0  0.42970  0.08436  0.60632  1.0000
  S   S1        1.0  0.75178  0.00415  0.35075  1.0000
  S   S2        1.0  0.24822  0.99585  0.64925  1.0000
  S   S3        1.0  0.77748  0.96394  0.25031  1.0000
  S   S4        1.0  0.22252  0.03606  0.74969  1.0000
  S   S5        1.0  0.66921  0.75050  0.22363  1.0000
  S   S6        1.0  0.33079  0.24950  0.77637  1.0000
  S   S7        1.0  0.61987  0.74400  0.31793  1.0000
  S   S8        1.0  0.38013  0.25600  0.68207  1.0000
  S   S9        1.0  0.81573  0.91649  0.43831  1.0000
  S   S10       1.0  0.18427  0.08351  0.56169  1.0000
  S   S11       1.0  0.88631  0.93799  0.35281  1.0000
  S   S12       1.0  0.11369  0.06201  0.64719  1.0000
  S   S13       1.0  0.81885  0.82771  0.27214  1.0000
  S   S14       1.0  0.18115  0.17229  0.72786  1.0000
  S   S15       1.0  0.77442  0.71708  0.32525  1.0000
  S   S16       1.0  0.22558  0.28292  0.67475  1.0000
  S   S17       1.0  0.74605  0.78201  0.42045  1.0000
  S   S18       1.0  0.25395  0.21799  0.57955  1.0000
  S   S19       1.0  0.88916  0.81159  0.39903  1.0000
  S   S20       1.0  0.11084  0.18841  0.60097  1.0000
