data_image0
_chemical_formula_structural       Pd2S4
_chemical_formula_sum              "Pd2 S4"
_cell_length_a       4.37021
_cell_length_b       4.37021
_cell_length_c       5.74239
_cell_angle_alpha    68.3482
_cell_angle_beta     68.3482
_cell_angle_gamma    81.796

_space_group_name_H-M_alt    "P 1"
_space_group_IT_number       1

loop_
  _space_group_symop_operation_xyz
  'x, y, z'

loop_
  _atom_site_type_symbol
  _atom_site_label
  _atom_site_symmetry_multiplicity
  _atom_site_fract_x
  _atom_site_fract_y
  _atom_site_fract_z
  _atom_site_occupancy
  Pd  Pd1       1.0  0.50000  0.00000  0.50000  1.0000
  Pd  Pd2       1.0  0.00000  0.50000  0.00000  1.0000
  S   S1        1.0  0.18920  0.41867  0.33349  1.0000
  S   S2        1.0  0.58133  0.81080  0.16651  1.0000
  S   S3        1.0  0.81080  0.58133  0.66651  1.0000
  S   S4        1.0  0.41867  0.18920  0.83349  1.0000
