data_image0
_chemical_formula_structural       PdS4
_chemical_formula_sum              "Pd1 S4"
_cell_length_a       7.64108
_cell_length_b       7.64108
_cell_length_c       7.64108
_cell_angle_alpha    109.471
_cell_angle_beta     109.471
_cell_angle_gamma    109.471

_space_group_name_H-M_alt    "P 1"
_space_group_IT_number       1

loop_
  _space_group_symop_operation_xyz
  'x, y, z'

loop_
  _atom_site_type_symbol
  _atom_site_label
  _atom_site_symmetry_multiplicity
  _atom_site_fract_x
  _atom_site_fract_y
  _atom_site_fract_z
  _atom_site_occupancy
  Pd  Pd1       1.0  0.00000  0.00000  0.00000  1.0000
  S   S1        1.0  0.67341  0.67341  0.67341  1.0000
  S   S2        1.0  1.00000  0.00000  0.32659  1.0000
  S   S3        1.0  0.32659  0.00000  0.00000  1.0000
  S   S4        1.0  0.00000  0.32659  0.00000  1.0000
