data_image0
_chemical_formula_structural       S8Pd6
_chemical_formula_sum              "S8 Pd6"
_cell_length_a       6.92628
_cell_length_b       8.00687
_cell_length_c       8.57819
_cell_angle_alpha    112.672
_cell_angle_beta     97.9974
_cell_angle_gamma    104.181

_space_group_name_H-M_alt    "P 1"
_space_group_IT_number       1

loop_
  _space_group_symop_operation_xyz
  'x, y, z'

loop_
  _atom_site_type_symbol
  _atom_site_label
  _atom_site_symmetry_multiplicity
  _atom_site_fract_x
  _atom_site_fract_y
  _atom_site_fract_z
  _atom_site_occupancy
  S   S1        1.0  0.77263  0.63421  0.53099  1.0000
  S   S2        1.0  0.10569  0.92878  0.08584  1.0000
  S   S3        1.0  0.70357  0.35830  0.78100  1.0000
  S   S4        1.0  0.96265  0.09165  0.49003  1.0000
  S   S5        1.0  0.38194  0.82049  0.43288  1.0000
  S   S6        1.0  0.85579  0.31422  0.17738  1.0000
  S   S7        1.0  0.29588  0.41555  0.01402  1.0000
  S   S8        1.0  0.55976  0.85128  0.99175  1.0000
  Pd  Pd1       1.0  0.53495  0.17224  0.36184  1.0000
  Pd  Pd2       1.0  0.15697  0.57627  0.71141  1.0000
  Pd  Pd3       1.0  0.24301  0.98169  0.76930  1.0000
  Pd  Pd4       1.0  0.78383  0.67277  0.18178  1.0000
  Pd  Pd5       1.0  0.28412  0.39871  0.41013  1.0000
  Pd  Pd6       1.0  0.85935  0.03395  0.81171  1.0000
