data_image0
_chemical_formula_structural       Pd4S10
_chemical_formula_sum              "Pd4 S10"
_cell_length_a       5.46086
_cell_length_b       8.53526
_cell_length_c       17.4207
_cell_angle_alpha    90.0283
_cell_angle_beta     90.0012
_cell_angle_gamma    89.9978

_space_group_name_H-M_alt    "P 1"
_space_group_IT_number       1

loop_
  _space_group_symop_operation_xyz
  'x, y, z'

loop_
  _atom_site_type_symbol
  _atom_site_label
  _atom_site_symmetry_multiplicity
  _atom_site_fract_x
  _atom_site_fract_y
  _atom_site_fract_z
  _atom_site_occupancy
  Pd  Pd1       1.0  0.01856  0.09227  0.14817  1.0000
  Pd  Pd2       1.0  0.51858  0.90655  0.35285  1.0000
  Pd  Pd3       1.0  0.51857  0.90621  0.64781  1.0000
  Pd  Pd4       1.0  0.01860  0.09392  0.85196  1.0000
  S   S1        1.0  0.51853  0.98572  0.18549  1.0000
  S   S2        1.0  0.01856  0.01516  0.31632  1.0000
  S   S3        1.0  0.01854  0.01337  0.68458  1.0000
  S   S4        1.0  0.51857  0.98583  0.81524  1.0000
  S   S5        1.0  0.01856  0.39322  0.85851  1.0000
  S   S6        1.0  0.51858  0.60717  0.64042  1.0000
  S   S7        1.0  0.51852  0.60717  0.35850  1.0000
  S   S8        1.0  0.51862  0.02951  0.50045  1.0000
  S   S9        1.0  0.01864  0.97262  0.99986  1.0000
  S   S10       1.0  0.01856  0.39129  0.13985  1.0000
