data_image0
_chemical_formula_structural       Pd4S6
_chemical_formula_sum              "Pd4 S6"
_cell_length_a       6.96612
_cell_length_b       6.96612
_cell_length_c       6.96612
_cell_angle_alpha    55.7143
_cell_angle_beta     55.7143
_cell_angle_gamma    55.7142

_space_group_name_H-M_alt    "P 1"
_space_group_IT_number       1

loop_
  _space_group_symop_operation_xyz
  'x, y, z'

loop_
  _atom_site_type_symbol
  _atom_site_label
  _atom_site_symmetry_multiplicity
  _atom_site_fract_x
  _atom_site_fract_y
  _atom_site_fract_z
  _atom_site_occupancy
  Pd  Pd1       1.0  0.84894  0.84894  0.84894  1.0000
  Pd  Pd2       1.0  0.65106  0.65106  0.65106  1.0000
  Pd  Pd3       1.0  0.15106  0.15106  0.15106  1.0000
  Pd  Pd4       1.0  0.34894  0.34894  0.34894  1.0000
  S   S1        1.0  0.75000  0.05344  0.44656  1.0000
  S   S2        1.0  0.44656  0.75000  0.05344  1.0000
  S   S3        1.0  0.05344  0.44656  0.75000  1.0000
  S   S4        1.0  0.25000  0.94656  0.55344  1.0000
  S   S5        1.0  0.94656  0.55344  0.25000  1.0000
  S   S6        1.0  0.55344  0.25000  0.94656  1.0000
