data_image0
_chemical_formula_structural       Pd3S18
_chemical_formula_sum              "Pd3 S18"
_cell_length_a       11.0085
_cell_length_b       11.0085
_cell_length_c       5.80376
_cell_angle_alpha    90
_cell_angle_beta     90
_cell_angle_gamma    120

_space_group_name_H-M_alt    "P 1"
_space_group_IT_number       1

loop_
  _space_group_symop_operation_xyz
  'x, y, z'

loop_
  _atom_site_type_symbol
  _atom_site_label
  _atom_site_symmetry_multiplicity
  _atom_site_fract_x
  _atom_site_fract_y
  _atom_site_fract_z
  _atom_site_occupancy
  Pd  Pd1       1.0  0.00000  0.00000  0.00000  1.0000
  Pd  Pd2       1.0  0.33333  0.66667  0.50431  1.0000
  Pd  Pd3       1.0  0.66667  0.33333  0.49569  1.0000
  S   S1        1.0  0.09759  0.90242  0.77306  1.0000
  S   S2        1.0  0.80483  0.90241  0.77306  1.0000
  S   S3        1.0  0.09759  0.19517  0.77306  1.0000
  S   S4        1.0  0.90242  0.09758  0.22694  1.0000
  S   S5        1.0  0.19517  0.09759  0.22694  1.0000
  S   S6        1.0  0.90241  0.80483  0.22694  1.0000
  S   S7        1.0  0.23577  0.76423  0.27742  1.0000
  S   S8        1.0  0.52846  0.76423  0.27742  1.0000
  S   S9        1.0  0.23577  0.47154  0.27742  1.0000
  S   S10       1.0  0.76423  0.23577  0.72258  1.0000
  S   S11       1.0  0.47154  0.23577  0.72258  1.0000
  S   S12       1.0  0.76423  0.52846  0.72258  1.0000
  S   S13       1.0  0.43100  0.56900  0.73096  1.0000
  S   S14       1.0  0.13800  0.56900  0.73096  1.0000
  S   S15       1.0  0.43100  0.86200  0.73096  1.0000
  S   S16       1.0  0.56900  0.43100  0.26904  1.0000
  S   S17       1.0  0.86200  0.43100  0.26904  1.0000
  S   S18       1.0  0.56900  0.13800  0.26904  1.0000
