data_image0
_chemical_formula_structural       S8Pd6
_chemical_formula_sum              "S8 Pd6"
_cell_length_a       8.76463
_cell_length_b       8.76463
_cell_length_c       8.40203
_cell_angle_alpha    63.2051
_cell_angle_beta     63.2051
_cell_angle_gamma    44.2811

_space_group_name_H-M_alt    "P 1"
_space_group_IT_number       1

loop_
  _space_group_symop_operation_xyz
  'x, y, z'

loop_
  _atom_site_type_symbol
  _atom_site_label
  _atom_site_symmetry_multiplicity
  _atom_site_fract_x
  _atom_site_fract_y
  _atom_site_fract_z
  _atom_site_occupancy
  S   S1        1.0  0.07793  0.76576  0.23195  1.0000
  S   S2        1.0  0.70336  0.88285  0.69167  1.0000
  S   S3        1.0  0.60973  0.79270  0.31515  1.0000
  S   S4        1.0  0.11715  0.29664  0.30833  1.0000
  S   S5        1.0  0.75219  0.43939  0.07082  1.0000
  S   S6        1.0  0.56061  0.24781  0.92918  1.0000
  S   S7        1.0  0.23424  0.92207  0.76805  1.0000
  S   S8        1.0  0.20730  0.39027  0.68485  1.0000
  Pd  Pd1       1.0  0.30677  0.99064  0.05896  1.0000
  Pd  Pd2       1.0  0.53012  0.21128  0.32798  1.0000
  Pd  Pd3       1.0  0.68573  0.31427  0.50000  1.0000
  Pd  Pd4       1.0  0.78872  0.46988  0.67202  1.0000
  Pd  Pd5       1.0  0.00936  0.69323  0.94104  1.0000
  Pd  Pd6       1.0  0.13435  0.86565  0.50000  1.0000
