data_image0
_chemical_formula_structural       Pd8S12
_chemical_formula_sum              "Pd8 S12"
_cell_length_a       6.1029
_cell_length_b       6.1029
_cell_length_c       11.8104
_cell_angle_alpha    90
_cell_angle_beta     90
_cell_angle_gamma    120

_space_group_name_H-M_alt    "P 1"
_space_group_IT_number       1

loop_
  _space_group_symop_operation_xyz
  'x, y, z'

loop_
  _atom_site_type_symbol
  _atom_site_label
  _atom_site_symmetry_multiplicity
  _atom_site_fract_x
  _atom_site_fract_y
  _atom_site_fract_z
  _atom_site_occupancy
  Pd  Pd1       1.0  0.66667  0.33333  0.50492  1.0000
  Pd  Pd2       1.0  0.33333  0.66667  0.49507  1.0000
  Pd  Pd3       1.0  0.66667  0.33333  0.99508  1.0000
  Pd  Pd4       1.0  0.33333  0.66667  0.00493  1.0000
  Pd  Pd5       1.0  0.00000  0.00000  0.50000  1.0000
  Pd  Pd6       1.0  0.00000  0.00000  0.00000  1.0000
  Pd  Pd7       1.0  0.66667  0.33333  0.75000  1.0000
  Pd  Pd8       1.0  0.33333  0.66667  0.25000  1.0000
  S   S1        1.0  0.66721  0.99455  0.62820  1.0000
  S   S2        1.0  0.33279  0.00545  0.37180  1.0000
  S   S3        1.0  0.00545  0.67266  0.62820  1.0000
  S   S4        1.0  0.66721  0.67266  0.87180  1.0000
  S   S5        1.0  0.99455  0.32734  0.37180  1.0000
  S   S6        1.0  0.33279  0.32734  0.12820  1.0000
  S   S7        1.0  0.32734  0.33279  0.62820  1.0000
  S   S8        1.0  0.00545  0.33279  0.87180  1.0000
  S   S9        1.0  0.67266  0.66721  0.37180  1.0000
  S   S10       1.0  0.99455  0.66721  0.12820  1.0000
  S   S11       1.0  0.32734  0.99455  0.87180  1.0000
  S   S12       1.0  0.67266  0.00545  0.12820  1.0000
