data_image0
_chemical_formula_structural       Pd6S18
_chemical_formula_sum              "Pd6 S18"
_cell_length_a       12.6301
_cell_length_b       12.6301
_cell_length_c       12.6301
_cell_angle_alpha    110.519
_cell_angle_beta     110.519
_cell_angle_gamma    110.519

_space_group_name_H-M_alt    "P 1"
_space_group_IT_number       1

loop_
  _space_group_symop_operation_xyz
  'x, y, z'

loop_
  _atom_site_type_symbol
  _atom_site_label
  _atom_site_symmetry_multiplicity
  _atom_site_fract_x
  _atom_site_fract_y
  _atom_site_fract_z
  _atom_site_occupancy
  Pd  Pd1       1.0  0.14736  0.02429  0.23122  1.0000
  Pd  Pd2       1.0  0.02429  0.23122  0.14736  1.0000
  Pd  Pd3       1.0  0.23122  0.14736  0.02429  1.0000
  Pd  Pd4       1.0  0.85264  0.97571  0.76878  1.0000
  Pd  Pd5       1.0  0.97571  0.76878  0.85264  1.0000
  Pd  Pd6       1.0  0.76878  0.85264  0.97571  1.0000
  S   S1        1.0  0.31140  0.04147  0.49783  1.0000
  S   S2        1.0  0.04147  0.49783  0.31140  1.0000
  S   S3        1.0  0.49783  0.31140  0.04147  1.0000
  S   S4        1.0  0.68859  0.95853  0.50217  1.0000
  S   S5        1.0  0.95853  0.50217  0.68859  1.0000
  S   S6        1.0  0.50217  0.68859  0.95853  1.0000
  S   S7        1.0  0.56259  0.80512  0.70664  1.0000
  S   S8        1.0  0.70663  0.56259  0.80512  1.0000
  S   S9        1.0  0.80512  0.70664  0.56259  1.0000
  S   S10       1.0  0.43741  0.19488  0.29336  1.0000
  S   S11       1.0  0.29337  0.43741  0.19488  1.0000
  S   S12       1.0  0.19488  0.29337  0.43741  1.0000
  S   S13       1.0  0.90265  0.85256  0.23730  1.0000
  S   S14       1.0  0.23730  0.90265  0.85256  1.0000
  S   S15       1.0  0.85256  0.23730  0.90265  1.0000
  S   S16       1.0  0.09735  0.14744  0.76270  1.0000
  S   S17       1.0  0.76270  0.09735  0.14744  1.0000
  S   S18       1.0  0.14744  0.76270  0.09735  1.0000
