data_image0
_chemical_formula_structural       Pd10Se17
_chemical_formula_sum              "Pd10 Se17"
_cell_length_a       12.3409
_cell_length_b       12.3409
_cell_length_c       12.3409
_cell_angle_alpha    144.436
_cell_angle_beta     135.778
_cell_angle_gamma    57.9872

_space_group_name_H-M_alt    "P 1"
_space_group_IT_number       1

loop_
  _space_group_symop_operation_xyz
  'x, y, z'

loop_
  _atom_site_type_symbol
  _atom_site_label
  _atom_site_symmetry_multiplicity
  _atom_site_fract_x
  _atom_site_fract_y
  _atom_site_fract_z
  _atom_site_occupancy
  Pd  Pd1       1.0  0.05224  0.56385  0.01571  1.0000
  Pd  Pd2       1.0  0.35262  0.36885  0.52065  1.0000
  Pd  Pd3       1.0  0.15180  0.16802  0.52065  1.0000
  Pd  Pd4       1.0  0.45186  0.96347  0.01571  1.0000
  Pd  Pd5       1.0  0.64738  0.16802  0.01623  1.0000
  Pd  Pd6       1.0  0.94776  0.96347  0.51160  1.0000
  Pd  Pd7       1.0  0.84820  0.36885  0.01622  1.0000
  Pd  Pd8       1.0  0.54814  0.56385  0.51161  1.0000
  Pd  Pd9       1.0  0.24459  0.76107  0.00566  1.0000
  Pd  Pd10      1.0  0.75541  0.76107  0.51648  1.0000
  Se  Se1       1.0  0.89556  0.50620  0.61064  1.0000
  Se  Se2       1.0  0.12152  0.08845  0.96692  1.0000
  Se  Se3       1.0  0.80089  0.17877  0.37788  1.0000
  Se  Se4       1.0  0.30057  0.89760  0.59702  1.0000
  Se  Se5       1.0  0.39982  0.50186  0.10204  1.0000
  Se  Se6       1.0  0.87848  0.84540  0.96692  1.0000
  Se  Se7       1.0  0.10444  0.71508  0.61064  1.0000
  Se  Se8       1.0  0.19911  0.57699  0.37788  1.0000
  Se  Se9       1.0  0.69942  0.29645  0.59702  1.0000
  Se  Se10      1.0  0.00000  0.43180  0.43180  1.0000
  Se  Se11      1.0  0.71515  0.67184  0.95669  1.0000
  Se  Se12      1.0  0.60018  0.70223  0.10204  1.0000
  Se  Se13      1.0  0.00000  0.08109  0.08109  1.0000
  Se  Se14      1.0  0.50000  0.38822  0.88822  1.0000
  Se  Se15      1.0  0.28485  0.24154  0.95669  1.0000
  Se  Se16      1.0  0.58184  0.03931  0.45747  1.0000
  Se  Se17      1.0  0.41816  0.87564  0.45747  1.0000
