data_image0
_chemical_formula_structural       Pd2S12
_chemical_formula_sum              "Pd2 S12"
_cell_length_a       11.3871
_cell_length_b       11.3871
_cell_length_c       14.1713
_cell_angle_alpha    90
_cell_angle_beta     90
_cell_angle_gamma    90

_space_group_name_H-M_alt    "P 1"
_space_group_IT_number       1

loop_
  _space_group_symop_operation_xyz
  'x, y, z'

loop_
  _atom_site_type_symbol
  _atom_site_label
  _atom_site_symmetry_multiplicity
  _atom_site_fract_x
  _atom_site_fract_y
  _atom_site_fract_z
  _atom_site_occupancy
  Pd  Pd1       1.0  0.50000  0.00000  0.00000  1.0000
  Pd  Pd2       1.0  0.00000  0.50000  0.00000  1.0000
  S   S1        1.0  0.87471  0.00000  0.35070  1.0000
  S   S2        1.0  0.12529  0.00000  0.35070  1.0000
  S   S3        1.0  0.00000  0.87471  0.35070  1.0000
  S   S4        1.0  0.00000  0.12529  0.64930  1.0000
  S   S5        1.0  0.12529  0.00000  0.64930  1.0000
  S   S6        1.0  0.00000  0.12529  0.35070  1.0000
  S   S7        1.0  0.00000  0.87471  0.64930  1.0000
  S   S8        1.0  0.87471  0.00000  0.64930  1.0000
  S   S9        1.0  0.00000  0.50000  0.15777  1.0000
  S   S10       1.0  0.50000  0.00000  0.15777  1.0000
  S   S11       1.0  0.50000  0.00000  0.84223  1.0000
  S   S12       1.0  0.00000  0.50000  0.84223  1.0000
