data_image0
_chemical_formula_structural       Pd4S12
_chemical_formula_sum              "Pd4 S12"
_cell_length_a       5.30394
_cell_length_b       6.47051
_cell_length_c       11.2186
_cell_angle_alpha    90
_cell_angle_beta     90
_cell_angle_gamma    90

_space_group_name_H-M_alt    "P 1"
_space_group_IT_number       1

loop_
  _space_group_symop_operation_xyz
  'x, y, z'

loop_
  _atom_site_type_symbol
  _atom_site_label
  _atom_site_symmetry_multiplicity
  _atom_site_fract_x
  _atom_site_fract_y
  _atom_site_fract_z
  _atom_site_occupancy
  Pd  Pd1       1.0  0.23675  0.75230  0.50000  1.0000
  Pd  Pd2       1.0  0.76326  0.75230  0.50000  1.0000
  Pd  Pd3       1.0  0.26326  0.24771  0.00000  1.0000
  Pd  Pd4       1.0  0.73674  0.24771  0.00000  1.0000
  S   S1        1.0  0.00000  0.60222  0.64971  1.0000
  S   S2        1.0  0.00000  0.05225  0.50000  1.0000
  S   S3        1.0  0.00000  0.10171  0.85356  1.0000
  S   S4        1.0  0.00000  0.10171  0.14644  1.0000
  S   S5        1.0  0.50000  0.89830  0.35356  1.0000
  S   S6        1.0  0.50000  0.39778  0.14971  1.0000
  S   S7        1.0  0.50000  0.45891  0.50000  1.0000
  S   S8        1.0  0.50000  0.89830  0.64644  1.0000
  S   S9        1.0  0.50000  0.39778  0.85029  1.0000
  S   S10       1.0  0.50000  0.94775  0.00000  1.0000
  S   S11       1.0  0.00000  0.54109  0.00000  1.0000
  S   S12       1.0  0.00000  0.60222  0.35029  1.0000
