data_image0
_chemical_formula_structural       Pd2S10
_chemical_formula_sum              "Pd2 S10"
_cell_length_a       7.72952
_cell_length_b       7.72952
_cell_length_c       8.85227
_cell_angle_alpha    75.1625
_cell_angle_beta     75.1625
_cell_angle_gamma    76.5196

_space_group_name_H-M_alt    "P 1"
_space_group_IT_number       1

loop_
  _space_group_symop_operation_xyz
  'x, y, z'

loop_
  _atom_site_type_symbol
  _atom_site_label
  _atom_site_symmetry_multiplicity
  _atom_site_fract_x
  _atom_site_fract_y
  _atom_site_fract_z
  _atom_site_occupancy
  Pd  Pd1       1.0  0.58981  0.41019  0.25000  1.0000
  Pd  Pd2       1.0  0.41019  0.58981  0.75000  1.0000
  S   S1        1.0  0.34606  0.65596  0.05700  1.0000
  S   S2        1.0  0.33818  0.23180  0.34662  1.0000
  S   S3        1.0  0.84793  0.15207  0.25000  1.0000
  S   S4        1.0  0.76820  0.66183  0.15338  1.0000
  S   S5        1.0  0.34404  0.65394  0.44300  1.0000
  S   S6        1.0  0.65596  0.34606  0.55700  1.0000
  S   S7        1.0  0.23180  0.33818  0.84662  1.0000
  S   S8        1.0  0.15207  0.84793  0.75000  1.0000
  S   S9        1.0  0.66182  0.76820  0.65338  1.0000
  S   S10       1.0  0.65394  0.34404  0.94300  1.0000
