data_image0
_chemical_formula_structural       Se3Pd3
_chemical_formula_sum              "Se3 Pd3"
_cell_length_a       4.90197
_cell_length_b       4.90197
_cell_length_c       4.90197
_cell_angle_alpha    86.4729
_cell_angle_beta     86.4729
_cell_angle_gamma    86.4729

_space_group_name_H-M_alt    "P 1"
_space_group_IT_number       1

loop_
  _space_group_symop_operation_xyz
  'x, y, z'

loop_
  _atom_site_type_symbol
  _atom_site_label
  _atom_site_symmetry_multiplicity
  _atom_site_fract_x
  _atom_site_fract_y
  _atom_site_fract_z
  _atom_site_occupancy
  Se  Se1       1.0  0.13403  0.86597  0.50000  1.0000
  Se  Se2       1.0  0.50000  0.13403  0.86597  1.0000
  Se  Se3       1.0  0.86597  0.50000  0.13403  1.0000
  Pd  Pd1       1.0  0.00000  0.00000  0.00000  1.0000
  Pd  Pd2       1.0  0.36431  0.36431  0.36431  1.0000
  Pd  Pd3       1.0  0.63569  0.63569  0.63569  1.0000
