data_image0
_chemical_formula_structural       PdSe34
_chemical_formula_sum              "Pd1 Se34"
_cell_length_a       9.94741
_cell_length_b       9.94741
_cell_length_c       9.94741
_cell_angle_alpha    60
_cell_angle_beta     60
_cell_angle_gamma    60

_space_group_name_H-M_alt    "P 1"
_space_group_IT_number       1

loop_
  _space_group_symop_operation_xyz
  'x, y, z'

loop_
  _atom_site_type_symbol
  _atom_site_label
  _atom_site_symmetry_multiplicity
  _atom_site_fract_x
  _atom_site_fract_y
  _atom_site_fract_z
  _atom_site_occupancy
  Pd  Pd1       1.0  0.75000  0.75000  0.75000  1.0000
  Se  Se1       1.0  0.00000  0.00000  0.00000  1.0000
  Se  Se2       1.0  0.25000  0.25000  0.25000  1.0000
  Se  Se3       1.0  0.36110  0.75435  0.75435  1.0000
  Se  Se4       1.0  0.75435  0.36110  0.13019  1.0000
  Se  Se5       1.0  0.75435  0.13019  0.36110  1.0000
  Se  Se6       1.0  0.13019  0.75435  0.75435  1.0000
  Se  Se7       1.0  0.75435  0.75435  0.36110  1.0000
  Se  Se8       1.0  0.36110  0.13019  0.75435  1.0000
  Se  Se9       1.0  0.13019  0.36110  0.75435  1.0000
  Se  Se10      1.0  0.75435  0.75435  0.13019  1.0000
  Se  Se11      1.0  0.75435  0.36110  0.75435  1.0000
  Se  Se12      1.0  0.13019  0.75435  0.36110  1.0000
  Se  Se13      1.0  0.36110  0.75435  0.13019  1.0000
  Se  Se14      1.0  0.75435  0.13019  0.75435  1.0000
  Se  Se15      1.0  0.88913  0.49575  0.49575  1.0000
  Se  Se16      1.0  0.49575  0.88913  0.11938  1.0000
  Se  Se17      1.0  0.49575  0.11938  0.88913  1.0000
  Se  Se18      1.0  0.11938  0.49575  0.49575  1.0000
  Se  Se19      1.0  0.49575  0.49575  0.88913  1.0000
  Se  Se20      1.0  0.88913  0.11938  0.49575  1.0000
  Se  Se21      1.0  0.11938  0.88913  0.49575  1.0000
  Se  Se22      1.0  0.49575  0.49575  0.11938  1.0000
  Se  Se23      1.0  0.49575  0.88913  0.49575  1.0000
  Se  Se24      1.0  0.11938  0.49575  0.88913  1.0000
  Se  Se25      1.0  0.88913  0.49575  0.11938  1.0000
  Se  Se26      1.0  0.49575  0.11938  0.49575  1.0000
  Se  Se27      1.0  0.27685  0.90772  0.90772  1.0000
  Se  Se28      1.0  0.90772  0.27685  0.90772  1.0000
  Se  Se29      1.0  0.90772  0.90772  0.27685  1.0000
  Se  Se30      1.0  0.90772  0.90772  0.90772  1.0000
  Se  Se31      1.0  0.97350  0.34217  0.34217  1.0000
  Se  Se32      1.0  0.34217  0.97350  0.34217  1.0000
  Se  Se33      1.0  0.34217  0.34217  0.97350  1.0000
  Se  Se34      1.0  0.34217  0.34217  0.34217  1.0000
