data_image0
_chemical_formula_structural       S20Pd18
_chemical_formula_sum              "S20 Pd18"
_cell_length_a       8.66306
_cell_length_b       8.66306
_cell_length_c       10.8646
_cell_angle_alpha    62.9765
_cell_angle_beta     62.9765
_cell_angle_gamma    44.532

_space_group_name_H-M_alt    "P 1"
_space_group_IT_number       1

loop_
  _space_group_symop_operation_xyz
  'x, y, z'

loop_
  _atom_site_type_symbol
  _atom_site_label
  _atom_site_symmetry_multiplicity
  _atom_site_fract_x
  _atom_site_fract_y
  _atom_site_fract_z
  _atom_site_occupancy
  S   S1        1.0  0.22371  0.47841  0.94744  1.0000
  S   S2        1.0  0.72123  0.96691  0.95646  1.0000
  S   S3        1.0  0.56451  0.33109  0.64836  1.0000
  S   S4        1.0  0.43549  0.66891  0.35164  1.0000
  S   S5        1.0  0.27877  0.03309  0.04354  1.0000
  S   S6        1.0  0.08162  0.81435  0.64538  1.0000
  S   S7        1.0  0.12384  0.37232  0.75029  1.0000
  S   S8        1.0  0.91838  0.18565  0.35462  1.0000
  S   S9        1.0  0.96691  0.72123  0.45646  1.0000
  S   S10       1.0  0.77629  0.52159  0.05256  1.0000
  S   S11       1.0  0.62768  0.87616  0.74971  1.0000
  S   S12       1.0  0.81435  0.08162  0.14538  1.0000
  S   S13       1.0  0.47841  0.22371  0.44744  1.0000
  S   S14       1.0  0.66891  0.43549  0.85164  1.0000
  S   S15       1.0  0.52159  0.77629  0.55256  1.0000
  S   S16       1.0  0.33109  0.56451  0.14836  1.0000
  S   S17       1.0  0.37232  0.12384  0.25029  1.0000
  S   S18       1.0  0.18565  0.91838  0.85462  1.0000
  S   S19       1.0  0.03309  0.27877  0.54354  1.0000
  S   S20       1.0  0.87616  0.62768  0.24971  1.0000
  Pd  Pd1       1.0  0.07604  0.32105  0.15013  1.0000
  Pd  Pd2       1.0  0.92396  0.67895  0.84987  1.0000
  Pd  Pd3       1.0  0.57524  0.82739  0.14771  1.0000
  Pd  Pd4       1.0  0.77672  0.02468  0.54996  1.0000
  Pd  Pd5       1.0  0.42476  0.17261  0.85229  1.0000
  Pd  Pd6       1.0  0.62336  0.37664  0.25000  1.0000
  Pd  Pd7       1.0  0.27531  0.52841  0.55126  1.0000
  Pd  Pd8       1.0  0.47159  0.72469  0.94874  1.0000
  Pd  Pd9       1.0  0.32105  0.07604  0.65013  1.0000
  Pd  Pd10      1.0  0.17261  0.42476  0.35229  1.0000
  Pd  Pd11      1.0  0.97532  0.22328  0.95004  1.0000
  Pd  Pd12      1.0  0.82739  0.57524  0.64771  1.0000
  Pd  Pd13      1.0  0.02468  0.77672  0.04996  1.0000
  Pd  Pd14      1.0  0.67895  0.92396  0.34987  1.0000
  Pd  Pd15      1.0  0.72469  0.47159  0.44874  1.0000
  Pd  Pd16      1.0  0.52841  0.27531  0.05126  1.0000
  Pd  Pd17      1.0  0.37664  0.62336  0.75000  1.0000
  Pd  Pd18      1.0  0.22328  0.97532  0.45004  1.0000
