data_image0
_chemical_formula_structural       Pd3Se6
_chemical_formula_sum              "Pd3 Se6"
_cell_length_a       8.33692
_cell_length_b       8.33692
_cell_length_c       15.317
_cell_angle_alpha    87.7944
_cell_angle_beta     87.7944
_cell_angle_gamma    59.4448

_space_group_name_H-M_alt    "P 1"
_space_group_IT_number       1

loop_
  _space_group_symop_operation_xyz
  'x, y, z'

loop_
  _atom_site_type_symbol
  _atom_site_label
  _atom_site_symmetry_multiplicity
  _atom_site_fract_x
  _atom_site_fract_y
  _atom_site_fract_z
  _atom_site_occupancy
  Pd  Pd1       1.0  0.94305  0.58681  0.66657  1.0000
  Pd  Pd2       1.0  0.54885  0.45115  0.50000  1.0000
  Pd  Pd3       1.0  0.41319  0.05695  0.33343  1.0000
  Se  Se1       1.0  0.16319  0.26293  0.24004  1.0000
  Se  Se2       1.0  0.25794  0.53323  0.60480  1.0000
  Se  Se3       1.0  0.62423  0.15429  0.40920  1.0000
  Se  Se4       1.0  0.46677  0.74206  0.39520  1.0000
  Se  Se5       1.0  0.84571  0.37577  0.59080  1.0000
  Se  Se6       1.0  0.73707  0.83681  0.75996  1.0000
