data_image0
_chemical_formula_structural       Pd2S36
_chemical_formula_sum              "Pd2 S36"
_cell_length_a       12.5312
_cell_length_b       12.5312
_cell_length_c       9.63255
_cell_angle_alpha    90
_cell_angle_beta     90
_cell_angle_gamma    120

_space_group_name_H-M_alt    "P 1"
_space_group_IT_number       1

loop_
  _space_group_symop_operation_xyz
  'x, y, z'

loop_
  _atom_site_type_symbol
  _atom_site_label
  _atom_site_symmetry_multiplicity
  _atom_site_fract_x
  _atom_site_fract_y
  _atom_site_fract_z
  _atom_site_occupancy
  Pd  Pd1       1.0  0.33333  0.66667  0.00783  1.0000
  Pd  Pd2       1.0  0.66667  0.33333  0.99217  1.0000
  S   S1        1.0  0.46512  0.23731  0.84305  1.0000
  S   S2        1.0  0.22781  0.46512  0.15695  1.0000
  S   S3        1.0  0.64712  0.52815  0.30754  1.0000
  S   S4        1.0  0.09215  0.69020  0.55587  1.0000
  S   S5        1.0  0.77219  0.53488  0.84305  1.0000
  S   S6        1.0  0.79268  0.79277  0.82620  1.0000
  S   S7        1.0  0.54299  0.14114  0.16348  1.0000
  S   S8        1.0  0.33350  0.11425  0.83739  1.0000
  S   S9        1.0  0.78076  0.66650  0.83739  1.0000
  S   S10       1.0  0.59805  0.90785  0.55587  1.0000
  S   S11       1.0  0.76269  0.22781  0.84305  1.0000
  S   S12       1.0  0.88103  0.35288  0.30754  1.0000
  S   S13       1.0  0.99991  0.79268  0.17380  1.0000
  S   S14       1.0  0.00009  0.20732  0.82620  1.0000
  S   S15       1.0  0.85886  0.40184  0.16348  1.0000
  S   S16       1.0  0.14114  0.59816  0.83652  1.0000
  S   S17       1.0  0.90785  0.30980  0.44413  1.0000
  S   S18       1.0  0.20723  0.99991  0.82620  1.0000
  S   S19       1.0  0.66650  0.88575  0.16261  1.0000
  S   S20       1.0  0.11897  0.64712  0.69246  1.0000
  S   S21       1.0  0.79277  0.00009  0.17380  1.0000
  S   S22       1.0  0.35288  0.47185  0.69246  1.0000
  S   S23       1.0  0.40184  0.54299  0.83652  1.0000
  S   S24       1.0  0.88575  0.21924  0.83739  1.0000
  S   S25       1.0  0.40196  0.09215  0.44413  1.0000
  S   S26       1.0  0.23731  0.77219  0.15695  1.0000
  S   S27       1.0  0.45701  0.85886  0.83652  1.0000
  S   S28       1.0  0.52815  0.88103  0.69246  1.0000
  S   S29       1.0  0.69020  0.59805  0.44413  1.0000
  S   S30       1.0  0.53488  0.76269  0.15695  1.0000
  S   S31       1.0  0.20732  0.20723  0.17380  1.0000
  S   S32       1.0  0.47185  0.11897  0.30754  1.0000
  S   S33       1.0  0.21924  0.33350  0.16261  1.0000
  S   S34       1.0  0.11425  0.78075  0.16261  1.0000
  S   S35       1.0  0.30980  0.40196  0.55587  1.0000
  S   S36       1.0  0.59816  0.45701  0.16348  1.0000
