data_image0
_chemical_formula_structural       Se18Pd10
_chemical_formula_sum              "Se18 Pd10"
_cell_length_a       7.2782
_cell_length_b       8.41094
_cell_length_c       9.42019
_cell_angle_alpha    77.1224
_cell_angle_beta     75.0248
_cell_angle_gamma    73.288

_space_group_name_H-M_alt    "P 1"
_space_group_IT_number       1

loop_
  _space_group_symop_operation_xyz
  'x, y, z'

loop_
  _atom_site_type_symbol
  _atom_site_label
  _atom_site_symmetry_multiplicity
  _atom_site_fract_x
  _atom_site_fract_y
  _atom_site_fract_z
  _atom_site_occupancy
  Se  Se1       1.0  0.04930  0.45136  0.14939  1.0000
  Se  Se2       1.0  0.04943  0.94951  0.14944  1.0000
  Se  Se3       1.0  0.95057  0.05049  0.85056  1.0000
  Se  Se4       1.0  0.15044  0.35026  0.45069  1.0000
  Se  Se5       1.0  0.95069  0.54864  0.85061  1.0000
  Se  Se6       1.0  0.44596  0.55159  0.34914  1.0000
  Se  Se7       1.0  0.34896  0.65088  0.04621  1.0000
  Se  Se8       1.0  0.25410  0.74953  0.74708  1.0000
  Se  Se9       1.0  0.64947  0.84981  0.95113  1.0000
  Se  Se10      1.0  0.15090  0.84901  0.44967  1.0000
  Se  Se11      1.0  0.54899  0.95040  0.64993  1.0000
  Se  Se12      1.0  0.45101  0.04960  0.35007  1.0000
  Se  Se13      1.0  0.35053  0.15019  0.04887  1.0000
  Se  Se14      1.0  0.84910  0.15099  0.55033  1.0000
  Se  Se15      1.0  0.65104  0.34912  0.95379  1.0000
  Se  Se16      1.0  0.55404  0.44841  0.65086  1.0000
  Se  Se17      1.0  0.84956  0.64974  0.54931  1.0000
  Se  Se18      1.0  0.74590  0.25047  0.25292  1.0000
  Pd  Pd1       1.0  0.89942  0.85019  0.70013  1.0000
  Pd  Pd2       1.0  0.90463  0.34883  0.69977  1.0000
  Pd  Pd3       1.0  0.09537  0.65117  0.30023  1.0000
  Pd  Pd4       1.0  0.29922  0.95447  0.89873  1.0000
  Pd  Pd5       1.0  0.10058  0.14981  0.29987  1.0000
  Pd  Pd6       1.0  0.49682  0.24967  0.50308  1.0000
  Pd  Pd7       1.0  0.29800  0.44715  0.89839  1.0000
  Pd  Pd8       1.0  0.70200  0.55285  0.10161  1.0000
  Pd  Pd9       1.0  0.50318  0.75033  0.49692  1.0000
  Pd  Pd10      1.0  0.70078  0.04553  0.10127  1.0000
