data_image0
_chemical_formula_structural       Pd4S6
_chemical_formula_sum              "Pd4 S6"
_cell_length_a       12.9695
_cell_length_b       12.9695
_cell_length_c       4.54675
_cell_angle_alpha    90
_cell_angle_beta     90
_cell_angle_gamma    160.03

_space_group_name_H-M_alt    "P 1"
_space_group_IT_number       1

loop_
  _space_group_symop_operation_xyz
  'x, y, z'

loop_
  _atom_site_type_symbol
  _atom_site_label
  _atom_site_symmetry_multiplicity
  _atom_site_fract_x
  _atom_site_fract_y
  _atom_site_fract_z
  _atom_site_occupancy
  Pd  Pd1       1.0  0.25362  0.74638  0.25000  1.0000
  Pd  Pd2       1.0  0.74638  0.25362  0.75000  1.0000
  Pd  Pd3       1.0  0.61788  0.38212  0.25000  1.0000
  Pd  Pd4       1.0  0.38212  0.61788  0.75000  1.0000
  S   S1        1.0  0.47850  0.52150  0.25000  1.0000
  S   S2        1.0  0.52150  0.47850  0.75000  1.0000
  S   S3        1.0  0.83587  0.16413  0.25000  1.0000
  S   S4        1.0  0.16413  0.83587  0.75000  1.0000
  S   S5        1.0  0.06832  0.93168  0.75000  1.0000
  S   S6        1.0  0.93168  0.06832  0.25000  1.0000
