data_image0
_chemical_formula_structural       Pd6Se8
_chemical_formula_sum              "Pd6 Se8"
_cell_length_a       9.62426
_cell_length_b       9.62426
_cell_length_c       3.46906
_cell_angle_alpha    90
_cell_angle_beta     90
_cell_angle_gamma    120

_space_group_name_H-M_alt    "P 1"
_space_group_IT_number       1

loop_
  _space_group_symop_operation_xyz
  'x, y, z'

loop_
  _atom_site_type_symbol
  _atom_site_label
  _atom_site_symmetry_multiplicity
  _atom_site_fract_x
  _atom_site_fract_y
  _atom_site_fract_z
  _atom_site_occupancy
  Pd  Pd1       1.0  0.52332  0.65429  0.75000  1.0000
  Pd  Pd2       1.0  0.13097  0.47668  0.75000  1.0000
  Pd  Pd3       1.0  0.34571  0.86902  0.75000  1.0000
  Pd  Pd4       1.0  0.47668  0.34571  0.25000  1.0000
  Pd  Pd5       1.0  0.86903  0.52332  0.25000  1.0000
  Pd  Pd6       1.0  0.65429  0.13098  0.25000  1.0000
  Se  Se1       1.0  0.63886  0.95101  0.75000  1.0000
  Se  Se2       1.0  0.31215  0.36114  0.75000  1.0000
  Se  Se3       1.0  0.04899  0.68785  0.75000  1.0000
  Se  Se4       1.0  0.36114  0.04899  0.25000  1.0000
  Se  Se5       1.0  0.68785  0.63886  0.25000  1.0000
  Se  Se6       1.0  0.95101  0.31215  0.25000  1.0000
  Se  Se7       1.0  0.66667  0.33333  0.75000  1.0000
  Se  Se8       1.0  0.33333  0.66667  0.25000  1.0000
