data_image0
_chemical_formula_structural       Pd2Se10
_chemical_formula_sum              "Pd2 Se10"
_cell_length_a       7.99186
_cell_length_b       9.10703
_cell_length_c       9.49149
_cell_angle_alpha    90
_cell_angle_beta     90
_cell_angle_gamma    90

_space_group_name_H-M_alt    "P 1"
_space_group_IT_number       1

loop_
  _space_group_symop_operation_xyz
  'x, y, z'

loop_
  _atom_site_type_symbol
  _atom_site_label
  _atom_site_symmetry_multiplicity
  _atom_site_fract_x
  _atom_site_fract_y
  _atom_site_fract_z
  _atom_site_occupancy
  Pd  Pd1       1.0  0.82513  0.00000  0.50000  1.0000
  Pd  Pd2       1.0  0.17486  0.50000  0.00000  1.0000
  Se  Se1       1.0  0.82618  0.00000  0.22023  1.0000
  Se  Se2       1.0  0.82618  0.00000  0.77977  1.0000
  Se  Se3       1.0  0.33925  0.25838  0.00000  1.0000
  Se  Se4       1.0  0.33925  0.74162  0.00000  1.0000
  Se  Se5       1.0  0.66075  0.75838  0.50000  1.0000
  Se  Se6       1.0  0.66075  0.24162  0.50000  1.0000
  Se  Se7       1.0  0.85477  0.50000  0.00000  1.0000
  Se  Se8       1.0  0.14523  0.00000  0.50000  1.0000
  Se  Se9       1.0  0.17382  0.50000  0.72023  1.0000
  Se  Se10      1.0  0.17382  0.50000  0.27977  1.0000
