data_image0
_chemical_formula_structural       SePd
_chemical_formula_sum              "Se1 Pd1"
_cell_length_a       4.00363
_cell_length_b       4.00363
_cell_length_c       5.8793
_cell_angle_alpha    90
_cell_angle_beta     90
_cell_angle_gamma    120

_space_group_name_H-M_alt    "P 1"
_space_group_IT_number       1

loop_
  _space_group_symop_operation_xyz
  'x, y, z'

loop_
  _atom_site_type_symbol
  _atom_site_label
  _atom_site_symmetry_multiplicity
  _atom_site_fract_x
  _atom_site_fract_y
  _atom_site_fract_z
  _atom_site_occupancy
  Se  Se1       1.0  0.33333  0.66667  0.98421  1.0000
  Pd  Pd1       1.0  0.66667  0.33333  0.89165  1.0000
