data_image0
_chemical_formula_structural       S3Pd2
_chemical_formula_sum              "S3 Pd2"
_cell_length_a       4.4368
_cell_length_b       4.4368
_cell_length_c       4.4368
_cell_angle_alpha    73.748
_cell_angle_beta     73.748
_cell_angle_gamma    73.748

_space_group_name_H-M_alt    "P 1"
_space_group_IT_number       1

loop_
  _space_group_symop_operation_xyz
  'x, y, z'

loop_
  _atom_site_type_symbol
  _atom_site_label
  _atom_site_symmetry_multiplicity
  _atom_site_fract_x
  _atom_site_fract_y
  _atom_site_fract_z
  _atom_site_occupancy
  S   S1        1.0  0.16127  0.83873  0.50000  1.0000
  S   S2        1.0  0.50000  0.16127  0.83873  1.0000
  S   S3        1.0  0.83873  0.50000  0.16127  1.0000
  Pd  Pd1       1.0  0.33498  0.33498  0.33498  1.0000
  Pd  Pd2       1.0  0.66502  0.66502  0.66502  1.0000
