data_image0
_chemical_formula_structural       Pd12S32
_chemical_formula_sum              "Pd12 S32"
_cell_length_a       9.65548
_cell_length_b       9.65548
_cell_length_c       14.2991
_cell_angle_alpha    90
_cell_angle_beta     90
_cell_angle_gamma    100.475

_space_group_name_H-M_alt    "P 1"
_space_group_IT_number       1

loop_
  _space_group_symop_operation_xyz
  'x, y, z'

loop_
  _atom_site_type_symbol
  _atom_site_label
  _atom_site_symmetry_multiplicity
  _atom_site_fract_x
  _atom_site_fract_y
  _atom_site_fract_z
  _atom_site_occupancy
  Pd  Pd1       1.0  0.56940  0.43060  0.38741  1.0000
  Pd  Pd2       1.0  0.93060  0.06940  0.88741  1.0000
  Pd  Pd3       1.0  0.43060  0.56940  0.61259  1.0000
  Pd  Pd4       1.0  0.06940  0.93060  0.11259  1.0000
  Pd  Pd5       1.0  0.53130  0.67463  0.45144  1.0000
  Pd  Pd6       1.0  0.96870  0.82537  0.95144  1.0000
  Pd  Pd7       1.0  0.67463  0.53130  0.54856  1.0000
  Pd  Pd8       1.0  0.82537  0.96870  0.04856  1.0000
  Pd  Pd9       1.0  0.46870  0.32537  0.54856  1.0000
  Pd  Pd10      1.0  0.03130  0.17463  0.04856  1.0000
  Pd  Pd11      1.0  0.32537  0.46870  0.45144  1.0000
  Pd  Pd12      1.0  0.17463  0.03130  0.95144  1.0000
  S   S1        1.0  0.04324  0.95676  0.43194  1.0000
  S   S2        1.0  0.45676  0.54324  0.93194  1.0000
  S   S3        1.0  0.95676  0.04324  0.56806  1.0000
  S   S4        1.0  0.54324  0.45676  0.06806  1.0000
  S   S5        1.0  0.65900  0.34099  0.23931  1.0000
  S   S6        1.0  0.84099  0.15900  0.73931  1.0000
  S   S7        1.0  0.34099  0.65900  0.76069  1.0000
  S   S8        1.0  0.15900  0.84099  0.26069  1.0000
  S   S9        1.0  0.57689  0.91229  0.38405  1.0000
  S   S10       1.0  0.92311  0.58771  0.88405  1.0000
  S   S11       1.0  0.91229  0.57689  0.61595  1.0000
  S   S12       1.0  0.58771  0.92311  0.11595  1.0000
  S   S13       1.0  0.27300  0.13421  0.10860  1.0000
  S   S14       1.0  0.22700  0.36579  0.60860  1.0000
  S   S15       1.0  0.13422  0.27300  0.89140  1.0000
  S   S16       1.0  0.36579  0.22700  0.39140  1.0000
  S   S17       1.0  0.72700  0.86578  0.89140  1.0000
  S   S18       1.0  0.77300  0.63421  0.39140  1.0000
  S   S19       1.0  0.86579  0.72700  0.10860  1.0000
  S   S20       1.0  0.63421  0.77300  0.60860  1.0000
  S   S21       1.0  0.07460  0.92540  0.79509  1.0000
  S   S22       1.0  0.42540  0.57460  0.29509  1.0000
  S   S23       1.0  0.92540  0.07460  0.20491  1.0000
  S   S24       1.0  0.57460  0.42540  0.70491  1.0000
  S   S25       1.0  0.21004  0.78996  0.01368  1.0000
  S   S26       1.0  0.28996  0.71004  0.51367  1.0000
  S   S27       1.0  0.78996  0.21004  0.98633  1.0000
  S   S28       1.0  0.71004  0.28996  0.48633  1.0000
  S   S29       1.0  0.41229  0.07689  0.88405  1.0000
  S   S30       1.0  0.08771  0.42311  0.38405  1.0000
  S   S31       1.0  0.07689  0.41229  0.11595  1.0000
  S   S32       1.0  0.42311  0.08771  0.61595  1.0000
