data_image0
_chemical_formula_structural       Pd8Se12
_chemical_formula_sum              "Pd8 Se12"
_cell_length_a       12.4861
_cell_length_b       10.7213
_cell_length_c       8.87554
_cell_angle_alpha    78.5382
_cell_angle_beta     57.3023
_cell_angle_gamma    44.1595

_space_group_name_H-M_alt    "P 1"
_space_group_IT_number       1

loop_
  _space_group_symop_operation_xyz
  'x, y, z'

loop_
  _atom_site_type_symbol
  _atom_site_label
  _atom_site_symmetry_multiplicity
  _atom_site_fract_x
  _atom_site_fract_y
  _atom_site_fract_z
  _atom_site_occupancy
  Pd  Pd1       1.0  0.37541  0.37541  0.12459  1.0000
  Pd  Pd2       1.0  0.12459  0.12459  0.37541  1.0000
  Pd  Pd3       1.0  0.63668  0.63668  0.36332  1.0000
  Pd  Pd4       1.0  0.36332  0.36332  0.63668  1.0000
  Pd  Pd5       1.0  0.88668  0.88668  0.61332  1.0000
  Pd  Pd6       1.0  0.12541  0.12541  0.87459  1.0000
  Pd  Pd7       1.0  0.87459  0.87459  0.12541  1.0000
  Pd  Pd8       1.0  0.61332  0.61332  0.88668  1.0000
  Se  Se1       1.0  0.20525  0.79917  0.64950  1.0000
  Se  Se2       1.0  0.60525  0.89475  0.60525  1.0000
  Se  Se3       1.0  0.35525  0.64475  0.35525  1.0000
  Se  Se4       1.0  0.45083  0.04475  0.90392  1.0000
  Se  Se5       1.0  0.64475  0.35525  0.64475  1.0000
  Se  Se6       1.0  0.34608  0.64950  0.79917  1.0000
  Se  Se7       1.0  0.90392  0.60050  0.45083  1.0000
  Se  Se8       1.0  0.89475  0.60525  0.89475  1.0000
  Se  Se9       1.0  0.64950  0.34608  0.20525  1.0000
  Se  Se10      1.0  0.04475  0.45083  0.60050  1.0000
  Se  Se11      1.0  0.79917  0.20525  0.34608  1.0000
  Se  Se12      1.0  0.60050  0.90392  0.04475  1.0000
