data_image0
_chemical_formula_structural       Se20Pd4
_chemical_formula_sum              "Se20 Pd4"
_cell_length_a       7.41591
_cell_length_b       7.41591
_cell_length_c       7.41591
_cell_angle_alpha    60
_cell_angle_beta     60
_cell_angle_gamma    60

_space_group_name_H-M_alt    "P 1"
_space_group_IT_number       1

loop_
  _space_group_symop_operation_xyz
  'x, y, z'

loop_
  _atom_site_type_symbol
  _atom_site_label
  _atom_site_symmetry_multiplicity
  _atom_site_fract_x
  _atom_site_fract_y
  _atom_site_fract_z
  _atom_site_occupancy
  Se  Se1       1.0  0.33945  0.98166  0.33945  1.0000
  Se  Se2       1.0  0.31555  0.31555  0.68445  1.0000
  Se  Se3       1.0  0.33945  0.33945  0.98166  1.0000
  Se  Se4       1.0  0.93445  0.93445  0.56555  1.0000
  Se  Se5       1.0  0.91055  0.26834  0.91055  1.0000
  Se  Se6       1.0  0.56555  0.93445  0.56555  1.0000
  Se  Se7       1.0  0.93445  0.56555  0.93445  1.0000
  Se  Se8       1.0  0.91055  0.91055  0.26834  1.0000
  Se  Se9       1.0  0.98166  0.33945  0.33945  1.0000
  Se  Se10      1.0  0.91055  0.91055  0.91055  1.0000
  Se  Se11      1.0  0.93445  0.56555  0.56555  1.0000
  Se  Se12      1.0  0.56555  0.93445  0.93445  1.0000
  Se  Se13      1.0  0.68445  0.31555  0.31555  1.0000
  Se  Se14      1.0  0.31555  0.68445  0.31555  1.0000
  Se  Se15      1.0  0.56555  0.56555  0.93445  1.0000
  Se  Se16      1.0  0.26834  0.91055  0.91055  1.0000
  Se  Se17      1.0  0.33945  0.33945  0.33945  1.0000
  Se  Se18      1.0  0.68445  0.31555  0.68445  1.0000
  Se  Se19      1.0  0.68445  0.68445  0.31555  1.0000
  Se  Se20      1.0  0.31555  0.68445  0.68445  1.0000
  Pd  Pd1       1.0  0.12500  0.12500  0.62500  1.0000
  Pd  Pd2       1.0  0.12500  0.62500  0.12500  1.0000
  Pd  Pd3       1.0  0.12500  0.12500  0.12500  1.0000
  Pd  Pd4       1.0  0.62500  0.12500  0.12500  1.0000
