data_image0
_chemical_formula_structural       S24Pd9
_chemical_formula_sum              "S24 Pd9"
_cell_length_a       9.95334
_cell_length_b       10.0242
_cell_length_c       12.3265
_cell_angle_alpha    90.5178
_cell_angle_beta     89.9703
_cell_angle_gamma    119.765

_space_group_name_H-M_alt    "P 1"
_space_group_IT_number       1

loop_
  _space_group_symop_operation_xyz
  'x, y, z'

loop_
  _atom_site_type_symbol
  _atom_site_label
  _atom_site_symmetry_multiplicity
  _atom_site_fract_x
  _atom_site_fract_y
  _atom_site_fract_z
  _atom_site_occupancy
  S   S1        1.0  0.83047  0.66509  0.20577  1.0000
  S   S2        1.0  0.41592  0.34699  0.29225  1.0000
  S   S3        1.0  0.73858  0.25567  0.37859  1.0000
  S   S4        1.0  0.16388  0.58399  0.29158  1.0000
  S   S5        1.0  0.51518  0.75379  0.37534  1.0000
  S   S6        1.0  0.91424  0.08485  0.29201  1.0000
  S   S7        1.0  0.17250  0.33149  0.53760  1.0000
  S   S8        1.0  0.74719  0.99302  0.62592  1.0000
  S   S9        1.0  0.25281  0.00698  0.37408  1.0000
  S   S10       1.0  0.82750  0.66851  0.46240  1.0000
  S   S11       1.0  0.08576  0.91515  0.70799  1.0000
  S   S12       1.0  0.48482  0.24621  0.62465  1.0000
  S   S13       1.0  0.83612  0.41601  0.70841  1.0000
  S   S14       1.0  0.26142  0.74433  0.62141  1.0000
  S   S15       1.0  0.49753  0.99907  0.87153  1.0000
  S   S16       1.0  0.09052  0.67179  0.95971  1.0000
  S   S17       1.0  0.58408  0.65301  0.70775  1.0000
  S   S18       1.0  0.16953  0.33491  0.79423  1.0000
  S   S19       1.0  0.41049  0.58317  0.04287  1.0000
  S   S20       1.0  0.82640  0.91275  0.95517  1.0000
  S   S21       1.0  0.17361  0.08725  0.04483  1.0000
  S   S22       1.0  0.58951  0.41683  0.95713  1.0000
  S   S23       1.0  0.90948  0.32821  0.04029  1.0000
  S   S24       1.0  0.50247  0.00093  0.12847  1.0000
  Pd  Pd1       1.0  0.16305  0.83186  0.16746  1.0000
  Pd  Pd2       1.0  0.00000  0.50000  0.50000  1.0000
  Pd  Pd3       1.0  0.50000  0.00000  0.50000  1.0000
  Pd  Pd4       1.0  0.83695  0.16814  0.83254  1.0000
  Pd  Pd5       1.0  0.00000  0.00000  0.50000  1.0000
  Pd  Pd6       1.0  0.33314  0.16638  0.83423  1.0000
  Pd  Pd7       1.0  0.83654  0.66656  0.83395  1.0000
  Pd  Pd8       1.0  0.66686  0.83362  0.16577  1.0000
  Pd  Pd9       1.0  0.16346  0.33344  0.16605  1.0000
