data_image0
_chemical_formula_structural       Pd8Tl16
_chemical_formula_sum              "Pd8 Tl16"
_cell_length_a       10.2081
_cell_length_b       13.5374
_cell_length_c       13.6365
_cell_angle_alpha    90
_cell_angle_beta     90
_cell_angle_gamma    90

_space_group_name_H-M_alt    "P 1"
_space_group_IT_number       1

loop_
  _space_group_symop_operation_xyz
  'x, y, z'

loop_
  _atom_site_type_symbol
  _atom_site_label
  _atom_site_symmetry_multiplicity
  _atom_site_fract_x
  _atom_site_fract_y
  _atom_site_fract_z
  _atom_site_occupancy
  Pd  Pd1       1.0  0.75000  0.00000  0.81849  1.0000
  Pd  Pd2       1.0  0.32387  0.75000  0.75000  1.0000
  Pd  Pd3       1.0  0.25000  0.00000  0.18151  1.0000
  Pd  Pd4       1.0  0.67614  0.25000  0.25000  1.0000
  Pd  Pd5       1.0  0.17614  0.25000  0.75000  1.0000
  Pd  Pd6       1.0  0.25000  0.50000  0.31849  1.0000
  Pd  Pd7       1.0  0.82386  0.75000  0.25000  1.0000
  Pd  Pd8       1.0  0.75000  0.50000  0.68151  1.0000
  Tl  Tl1       1.0  0.49818  0.45554  0.81853  1.0000
  Tl  Tl2       1.0  0.50182  0.54446  0.18147  1.0000
  Tl  Tl3       1.0  0.99818  0.04446  0.31853  1.0000
  Tl  Tl4       1.0  0.84427  0.31485  0.54980  1.0000
  Tl  Tl5       1.0  0.50182  0.95554  0.31853  1.0000
  Tl  Tl6       1.0  0.34427  0.31485  0.45020  1.0000
  Tl  Tl7       1.0  0.84427  0.18515  0.95020  1.0000
  Tl  Tl8       1.0  0.34427  0.18515  0.04980  1.0000
  Tl  Tl9       1.0  0.65573  0.81485  0.95020  1.0000
  Tl  Tl10      1.0  0.99818  0.45554  0.18147  1.0000
  Tl  Tl11      1.0  0.15573  0.81485  0.04980  1.0000
  Tl  Tl12      1.0  0.49818  0.04446  0.68147  1.0000
  Tl  Tl13      1.0  0.65573  0.68515  0.54980  1.0000
  Tl  Tl14      1.0  0.00182  0.54446  0.81853  1.0000
  Tl  Tl15      1.0  0.15573  0.68515  0.45020  1.0000
  Tl  Tl16      1.0  0.00182  0.95554  0.68147  1.0000
