data_image0
_chemical_formula_structural       Pd12Tl14
_chemical_formula_sum              "Pd12 Tl14"
_cell_length_a       5.15488
_cell_length_b       12.076
_cell_length_c       22.875
_cell_angle_alpha    77.9885
_cell_angle_beta     90
_cell_angle_gamma    90

_space_group_name_H-M_alt    "P 1"
_space_group_IT_number       1

loop_
  _space_group_symop_operation_xyz
  'x, y, z'

loop_
  _atom_site_type_symbol
  _atom_site_label
  _atom_site_symmetry_multiplicity
  _atom_site_fract_x
  _atom_site_fract_y
  _atom_site_fract_z
  _atom_site_occupancy
  Pd  Pd1       1.0  0.25000  0.18310  0.18866  1.0000
  Pd  Pd2       1.0  0.75000  0.06778  0.87879  1.0000
  Pd  Pd3       1.0  0.25000  0.97788  0.60357  1.0000
  Pd  Pd4       1.0  0.25000  0.67286  0.46843  1.0000
  Pd  Pd5       1.0  0.75000  0.02212  0.39643  1.0000
  Pd  Pd6       1.0  0.75000  0.64508  0.04618  1.0000
  Pd  Pd7       1.0  0.75000  0.81690  0.81134  1.0000
  Pd  Pd8       1.0  0.25000  0.93222  0.12122  1.0000
  Pd  Pd9       1.0  0.75000  0.32714  0.53157  1.0000
  Pd  Pd10      1.0  0.25000  0.53063  0.27503  1.0000
  Pd  Pd11      1.0  0.25000  0.35492  0.95382  1.0000
  Pd  Pd12      1.0  0.75000  0.46937  0.72497  1.0000
  Tl  Tl1       1.0  0.75000  0.75440  0.17419  1.0000
  Tl  Tl2       1.0  0.75000  0.53647  0.41039  1.0000
  Tl  Tl3       1.0  0.75000  0.55656  0.91008  1.0000
  Tl  Tl4       1.0  0.25000  0.44344  0.08992  1.0000
  Tl  Tl5       1.0  0.75000  0.24046  0.27228  1.0000
  Tl  Tl6       1.0  0.25000  0.75954  0.72772  1.0000
  Tl  Tl7       1.0  0.75000  0.16597  0.00495  1.0000
  Tl  Tl8       1.0  0.75000  0.11582  0.65266  1.0000
  Tl  Tl9       1.0  0.25000  0.24560  0.82581  1.0000
  Tl  Tl10      1.0  0.25000  0.16795  0.46840  1.0000
  Tl  Tl11      1.0  0.25000  0.88418  0.34734  1.0000
  Tl  Tl12      1.0  0.25000  0.46353  0.58961  1.0000
  Tl  Tl13      1.0  0.75000  0.83205  0.53160  1.0000
  Tl  Tl14      1.0  0.25000  0.83403  0.99505  1.0000
