data_image0
_chemical_formula_structural       PdSe12
_chemical_formula_sum              "Pd1 Se12"
_cell_length_a       5.36848
_cell_length_b       5.36848
_cell_length_c       5.36848
_cell_angle_alpha    95.9711
_cell_angle_beta     95.9711
_cell_angle_gamma    142.368

_space_group_name_H-M_alt    "P 1"
_space_group_IT_number       1

loop_
  _space_group_symop_operation_xyz
  'x, y, z'

loop_
  _atom_site_type_symbol
  _atom_site_label
  _atom_site_symmetry_multiplicity
  _atom_site_fract_x
  _atom_site_fract_y
  _atom_site_fract_z
  _atom_site_occupancy
  Pd  Pd1       1.0  0.00000  0.00000  0.00000  1.0000
  Se  Se1       1.0  0.26139  0.50000  0.76139  1.0000
  Se  Se2       1.0  0.50000  0.26139  0.76139  1.0000
  Se  Se3       1.0  0.73861  0.50000  0.23861  1.0000
  Se  Se4       1.0  0.50000  0.73861  0.23861  1.0000
  Se  Se5       1.0  0.22510  0.22510  0.45019  1.0000
  Se  Se6       1.0  0.77490  0.22510  0.00000  1.0000
  Se  Se7       1.0  0.77490  0.77490  0.54981  1.0000
  Se  Se8       1.0  0.22510  0.77490  0.00000  1.0000
  Se  Se9       1.0  0.36553  0.00000  0.36553  1.0000
  Se  Se10      1.0  0.00000  0.36553  0.36553  1.0000
  Se  Se11      1.0  0.63447  0.00000  0.63447  1.0000
  Se  Se12      1.0  0.00000  0.63447  0.63447  1.0000
