data_image0
_chemical_formula_structural       Pd8Se11
_chemical_formula_sum              "Pd8 Se11"
_cell_length_a       12.1203
_cell_length_b       12.1203
_cell_length_c       12.1203
_cell_angle_alpha    160.52
_cell_angle_beta     145.459
_cell_angle_gamma    39.9611

_space_group_name_H-M_alt    "P 1"
_space_group_IT_number       1

loop_
  _space_group_symop_operation_xyz
  'x, y, z'

loop_
  _atom_site_type_symbol
  _atom_site_label
  _atom_site_symmetry_multiplicity
  _atom_site_fract_x
  _atom_site_fract_y
  _atom_site_fract_z
  _atom_site_occupancy
  Pd  Pd1       1.0  0.42752  0.42752  0.00000  1.0000
  Pd  Pd2       1.0  0.92469  0.42469  0.50000  1.0000
  Pd  Pd3       1.0  0.70025  0.70025  1.00000  1.0000
  Pd  Pd4       1.0  0.19739  0.69739  0.50000  1.0000
  Pd  Pd5       1.0  0.54613  0.29464  0.25149  1.0000
  Pd  Pd6       1.0  0.04315  0.29464  0.74851  1.0000
  Pd  Pd7       1.0  0.81859  0.56867  0.24992  1.0000
  Pd  Pd8       1.0  0.31875  0.56867  0.75008  1.0000
  Se  Se1       1.0  0.10539  0.10539  0.00000  1.0000
  Se  Se2       1.0  0.13755  0.88438  0.25318  1.0000
  Se  Se3       1.0  0.41457  0.16780  0.24677  1.0000
  Se  Se4       1.0  0.92103  0.16780  0.75323  1.0000
  Se  Se5       1.0  0.82790  0.82790  1.00000  1.0000
  Se  Se6       1.0  0.63120  0.88438  0.74682  1.0000
  Se  Se7       1.0  0.61234  0.11234  0.50000  1.0000
  Se  Se8       1.0  0.76373  0.98020  0.78353  1.0000
  Se  Se9       1.0  0.51607  0.01607  0.50000  1.0000
  Se  Se10      1.0  0.19668  0.98020  0.21647  1.0000
  Se  Se11      1.0  0.32538  0.82538  0.50000  1.0000
