data_image0
_chemical_formula_structural       PdSe4
_chemical_formula_sum              "Pd1 Se4"
_cell_length_a       7.35157
_cell_length_b       7.35157
_cell_length_c       6.5649
_cell_angle_alpha    65.8532
_cell_angle_beta     65.8532
_cell_angle_gamma    30.6875

_space_group_name_H-M_alt    "P 1"
_space_group_IT_number       1

loop_
  _space_group_symop_operation_xyz
  'x, y, z'

loop_
  _atom_site_type_symbol
  _atom_site_label
  _atom_site_symmetry_multiplicity
  _atom_site_fract_x
  _atom_site_fract_y
  _atom_site_fract_z
  _atom_site_occupancy
  Pd  Pd1       1.0  0.00000  0.00000  0.00000  1.0000
  Se  Se1       1.0  0.12355  0.12355  0.19428  1.0000
  Se  Se2       1.0  0.61823  0.61823  0.71166  1.0000
  Se  Se3       1.0  0.87645  0.87645  0.80572  1.0000
  Se  Se4       1.0  0.38177  0.38177  0.28834  1.0000
