data_image0
_chemical_formula_structural       Pd4Se8
_chemical_formula_sum              "Pd4 Se8"
_cell_length_a       7.72887
_cell_length_b       7.72887
_cell_length_c       7.72887
_cell_angle_alpha    58.4984
_cell_angle_beta     58.4984
_cell_angle_gamma    58.4984

_space_group_name_H-M_alt    "P 1"
_space_group_IT_number       1

loop_
  _space_group_symop_operation_xyz
  'x, y, z'

loop_
  _atom_site_type_symbol
  _atom_site_label
  _atom_site_symmetry_multiplicity
  _atom_site_fract_x
  _atom_site_fract_y
  _atom_site_fract_z
  _atom_site_occupancy
  Pd  Pd1       1.0  0.37892  0.37892  0.37892  1.0000
  Pd  Pd2       1.0  0.99168  0.99168  0.53422  1.0000
  Pd  Pd3       1.0  0.53422  0.99168  0.99168  1.0000
  Pd  Pd4       1.0  0.99168  0.53422  0.99168  1.0000
  Se  Se1       1.0  0.75548  0.75548  0.75548  1.0000
  Se  Se2       1.0  0.74670  0.74670  0.22816  1.0000
  Se  Se3       1.0  0.22816  0.74670  0.74670  1.0000
  Se  Se4       1.0  0.74670  0.22816  0.74670  1.0000
  Se  Se5       1.0  0.24249  0.24249  0.24249  1.0000
  Se  Se6       1.0  0.24581  0.24581  0.76737  1.0000
  Se  Se7       1.0  0.76737  0.24581  0.24581  1.0000
  Se  Se8       1.0  0.24581  0.76737  0.24581  1.0000
