data_image0
_chemical_formula_structural       Pd16Se22
_chemical_formula_sum              "Pd16 Se22"
_cell_length_a       5.95978
_cell_length_b       5.95978
_cell_length_c       31.6145
_cell_angle_alpha    90
_cell_angle_beta     90
_cell_angle_gamma    147.037

_space_group_name_H-M_alt    "P 1"
_space_group_IT_number       1

loop_
  _space_group_symop_operation_xyz
  'x, y, z'

loop_
  _atom_site_type_symbol
  _atom_site_label
  _atom_site_symmetry_multiplicity
  _atom_site_fract_x
  _atom_site_fract_y
  _atom_site_fract_z
  _atom_site_occupancy
  Pd  Pd1       1.0  0.98097  0.01903  0.63283  1.0000
  Pd  Pd2       1.0  0.01903  0.98097  0.36717  1.0000
  Pd  Pd3       1.0  0.01903  0.98097  0.13283  1.0000
  Pd  Pd4       1.0  0.98097  0.01903  0.86717  1.0000
  Pd  Pd5       1.0  0.75983  0.24017  0.18295  1.0000
  Pd  Pd6       1.0  0.24017  0.75983  0.81705  1.0000
  Pd  Pd7       1.0  0.24017  0.75983  0.68295  1.0000
  Pd  Pd8       1.0  0.75983  0.24017  0.31705  1.0000
  Pd  Pd9       1.0  0.74295  0.25705  0.55797  1.0000
  Pd  Pd10      1.0  0.25705  0.74295  0.44203  1.0000
  Pd  Pd11      1.0  0.25705  0.74295  0.05797  1.0000
  Pd  Pd12      1.0  0.74295  0.25705  0.94203  1.0000
  Pd  Pd13      1.0  0.51058  0.48942  0.25000  1.0000
  Pd  Pd14      1.0  0.48942  0.51058  0.75000  1.0000
  Pd  Pd15      1.0  0.00000  0.00000  0.50000  1.0000
  Pd  Pd16      1.0  0.00000  0.00000  0.00000  1.0000
  Se  Se1       1.0  0.60311  0.39689  0.83711  1.0000
  Se  Se2       1.0  0.39689  0.60311  0.16289  1.0000
  Se  Se3       1.0  0.39689  0.60311  0.33711  1.0000
  Se  Se4       1.0  0.60311  0.39689  0.66289  1.0000
  Se  Se5       1.0  0.66499  0.33501  0.11163  1.0000
  Se  Se6       1.0  0.33501  0.66499  0.88837  1.0000
  Se  Se7       1.0  0.33501  0.66499  0.61163  1.0000
  Se  Se8       1.0  0.66499  0.33501  0.38837  1.0000
  Se  Se9       1.0  0.64689  0.35310  0.01605  1.0000
  Se  Se10      1.0  0.35310  0.64689  0.98395  1.0000
  Se  Se11      1.0  0.35310  0.64689  0.51605  1.0000
  Se  Se12      1.0  0.64689  0.35310  0.48395  1.0000
  Se  Se13      1.0  0.88539  0.11461  0.79666  1.0000
  Se  Se14      1.0  0.11461  0.88539  0.20334  1.0000
  Se  Se15      1.0  0.11461  0.88539  0.29666  1.0000
  Se  Se16      1.0  0.88539  0.11461  0.70334  1.0000
  Se  Se17      1.0  0.14254  0.85746  0.75000  1.0000
  Se  Se18      1.0  0.85746  0.14254  0.25000  1.0000
  Se  Se19      1.0  0.90982  0.09018  0.43158  1.0000
  Se  Se20      1.0  0.09018  0.90982  0.56842  1.0000
  Se  Se21      1.0  0.09018  0.90982  0.93158  1.0000
  Se  Se22      1.0  0.90982  0.09018  0.06842  1.0000
