data_image0
_chemical_formula_structural       Se6Pd2
_chemical_formula_sum              "Se6 Pd2"
_cell_length_a       19.0347
_cell_length_b       19.0347
_cell_length_c       19.0347
_cell_angle_alpha    19.5276
_cell_angle_beta     19.5276
_cell_angle_gamma    19.5276

_space_group_name_H-M_alt    "P 1"
_space_group_IT_number       1

loop_
  _space_group_symop_operation_xyz
  'x, y, z'

loop_
  _atom_site_type_symbol
  _atom_site_label
  _atom_site_symmetry_multiplicity
  _atom_site_fract_x
  _atom_site_fract_y
  _atom_site_fract_z
  _atom_site_occupancy
  Se  Se1       1.0  0.58380  0.58380  0.58380  1.0000
  Se  Se2       1.0  0.41620  0.41620  0.41620  1.0000
  Se  Se3       1.0  0.65493  0.65493  0.65493  1.0000
  Se  Se4       1.0  0.34507  0.34507  0.34507  1.0000
  Se  Se5       1.0  0.22790  0.22790  0.22790  1.0000
  Se  Se6       1.0  0.77210  0.77210  0.77210  1.0000
  Pd  Pd1       1.0  0.18318  0.18318  0.18318  1.0000
  Pd  Pd2       1.0  0.81682  0.81682  0.81682  1.0000
