data_image0
_chemical_formula_structural       Tl18Pd10
_chemical_formula_sum              "Tl18 Pd10"
_cell_length_a       16.4506
_cell_length_b       16.4506
_cell_length_c       16.4506
_cell_angle_alpha    32.1565
_cell_angle_beta     32.1565
_cell_angle_gamma    32.1565

_space_group_name_H-M_alt    "P 1"
_space_group_IT_number       1

loop_
  _space_group_symop_operation_xyz
  'x, y, z'

loop_
  _atom_site_type_symbol
  _atom_site_label
  _atom_site_symmetry_multiplicity
  _atom_site_fract_x
  _atom_site_fract_y
  _atom_site_fract_z
  _atom_site_occupancy
  Tl  Tl1       1.0  0.61783  0.14135  0.90693  1.0000
  Tl  Tl2       1.0  0.24804  0.50000  0.75196  1.0000
  Tl  Tl3       1.0  0.14135  0.90693  0.61783  1.0000
  Tl  Tl4       1.0  0.50000  0.75196  0.24804  1.0000
  Tl  Tl5       1.0  0.90693  0.61783  0.14135  1.0000
  Tl  Tl6       1.0  0.75196  0.24804  0.50000  1.0000
  Tl  Tl7       1.0  0.07477  0.44416  0.64286  1.0000
  Tl  Tl8       1.0  0.74392  0.25608  0.00000  1.0000
  Tl  Tl9       1.0  0.44416  0.64286  0.07477  1.0000
  Tl  Tl10      1.0  0.25608  0.00000  0.74392  1.0000
  Tl  Tl11      1.0  0.64286  0.07477  0.44416  1.0000
  Tl  Tl12      1.0  0.00000  0.74392  0.25608  1.0000
  Tl  Tl13      1.0  0.85865  0.38217  0.09307  1.0000
  Tl  Tl14      1.0  0.92523  0.35714  0.55584  1.0000
  Tl  Tl15      1.0  0.38217  0.09307  0.85865  1.0000
  Tl  Tl16      1.0  0.35714  0.55584  0.92523  1.0000
  Tl  Tl17      1.0  0.09307  0.85865  0.38217  1.0000
  Tl  Tl18      1.0  0.55584  0.92523  0.35714  1.0000
  Pd  Pd1       1.0  0.33059  0.33059  0.33059  1.0000
  Pd  Pd2       1.0  0.44220  0.44220  0.44220  1.0000
  Pd  Pd3       1.0  0.16773  0.16773  0.16773  1.0000
  Pd  Pd4       1.0  0.23560  0.23560  0.23560  1.0000
  Pd  Pd5       1.0  0.05581  0.05581  0.05581  1.0000
  Pd  Pd6       1.0  0.55780  0.55780  0.55780  1.0000
  Pd  Pd7       1.0  0.66941  0.66941  0.66941  1.0000
  Pd  Pd8       1.0  0.94419  0.94419  0.94418  1.0000
  Pd  Pd9       1.0  0.83227  0.83227  0.83227  1.0000
  Pd  Pd10      1.0  0.76440  0.76440  0.76440  1.0000
