data_image0
_chemical_formula_structural       Tl4Pd2
_chemical_formula_sum              "Tl4 Pd2"
_cell_length_a       7.63191
_cell_length_b       7.63191
_cell_length_c       7.90531
_cell_angle_alpha    89.5223
_cell_angle_beta     89.5223
_cell_angle_gamma    66.1456

_space_group_name_H-M_alt    "P 1"
_space_group_IT_number       1

loop_
  _space_group_symop_operation_xyz
  'x, y, z'

loop_
  _atom_site_type_symbol
  _atom_site_label
  _atom_site_symmetry_multiplicity
  _atom_site_fract_x
  _atom_site_fract_y
  _atom_site_fract_z
  _atom_site_occupancy
  Tl  Tl1       1.0  0.50000  0.50000  0.50000  1.0000
  Tl  Tl2       1.0  0.50000  0.00000  0.50000  1.0000
  Tl  Tl3       1.0  0.00000  0.50000  0.50000  1.0000
  Tl  Tl4       1.0  0.50000  0.50000  0.00000  1.0000
  Pd  Pd1       1.0  0.31754  0.31754  0.24485  1.0000
  Pd  Pd2       1.0  0.68246  0.68246  0.75515  1.0000
