data_image0
_chemical_formula_structural       Pd2Se8
_chemical_formula_sum              "Pd2 Se8"
_cell_length_a       6.50143
_cell_length_b       6.50143
_cell_length_c       6.90436
_cell_angle_alpha    87.4713
_cell_angle_beta     87.4713
_cell_angle_gamma    76.1562

_space_group_name_H-M_alt    "P 1"
_space_group_IT_number       1

loop_
  _space_group_symop_operation_xyz
  'x, y, z'

loop_
  _atom_site_type_symbol
  _atom_site_label
  _atom_site_symmetry_multiplicity
  _atom_site_fract_x
  _atom_site_fract_y
  _atom_site_fract_z
  _atom_site_occupancy
  Pd  Pd1       1.0  0.80404  0.80404  0.44225  1.0000
  Pd  Pd2       1.0  0.19596  0.19596  0.55775  1.0000
  Se  Se1       1.0  0.16843  0.55027  0.34878  1.0000
  Se  Se2       1.0  0.44973  0.83157  0.65122  1.0000
  Se  Se3       1.0  0.94985  0.94985  0.73199  1.0000
  Se  Se4       1.0  0.05015  0.05015  0.26801  1.0000
  Se  Se5       1.0  0.32282  0.32282  0.83917  1.0000
  Se  Se6       1.0  0.67718  0.67718  0.16083  1.0000
  Se  Se7       1.0  0.55027  0.16843  0.34878  1.0000
  Se  Se8       1.0  0.83157  0.44973  0.65122  1.0000
