data_image0
_chemical_formula_structural       Pd3Tl9
_chemical_formula_sum              "Pd3 Tl9"
_cell_length_a       9.98564
_cell_length_b       9.98564
_cell_length_c       14.016
_cell_angle_alpha    89.2926
_cell_angle_beta     89.2926
_cell_angle_gamma    60.8915

_space_group_name_H-M_alt    "P 1"
_space_group_IT_number       1

loop_
  _space_group_symop_operation_xyz
  'x, y, z'

loop_
  _atom_site_type_symbol
  _atom_site_label
  _atom_site_symmetry_multiplicity
  _atom_site_fract_x
  _atom_site_fract_y
  _atom_site_fract_z
  _atom_site_occupancy
  Pd  Pd1       1.0  0.33840  0.33145  0.33852  1.0000
  Pd  Pd2       1.0  0.00468  0.99532  0.00000  1.0000
  Pd  Pd3       1.0  0.66855  0.66160  0.66148  1.0000
  Tl  Tl1       1.0  0.92548  0.72705  0.82643  1.0000
  Tl  Tl2       1.0  0.00683  0.37761  0.50122  1.0000
  Tl  Tl3       1.0  0.31571  0.94082  0.82546  1.0000
  Tl  Tl4       1.0  0.72573  0.32578  0.82520  1.0000
  Tl  Tl5       1.0  0.27295  0.07452  0.17357  1.0000
  Tl  Tl6       1.0  0.38578  0.61422  0.50000  1.0000
  Tl  Tl7       1.0  0.62239  0.99317  0.49878  1.0000
  Tl  Tl8       1.0  0.05918  0.68429  0.17454  1.0000
  Tl  Tl9       1.0  0.67422  0.27427  0.17480  1.0000
