data_image0
_chemical_formula_structural       Pd14Tl16
_chemical_formula_sum              "Pd14 Tl16"
_cell_length_a       8.65442
_cell_length_b       16.7198
_cell_length_c       7.91859
_cell_angle_alpha    89.9392
_cell_angle_beta     89.9216
_cell_angle_gamma    113.397

_space_group_name_H-M_alt    "P 1"
_space_group_IT_number       1

loop_
  _space_group_symop_operation_xyz
  'x, y, z'

loop_
  _atom_site_type_symbol
  _atom_site_label
  _atom_site_symmetry_multiplicity
  _atom_site_fract_x
  _atom_site_fract_y
  _atom_site_fract_z
  _atom_site_occupancy
  Pd  Pd1       1.0  0.04534  0.01091  0.98581  1.0000
  Pd  Pd2       1.0  0.28349  0.14548  0.53961  1.0000
  Pd  Pd3       1.0  0.45099  0.98202  0.47677  1.0000
  Pd  Pd4       1.0  0.54483  0.26748  0.98012  1.0000
  Pd  Pd5       1.0  0.71536  0.10317  0.03770  1.0000
  Pd  Pd6       1.0  0.96058  0.24081  0.49038  1.0000
  Pd  Pd7       1.0  0.95135  0.47920  0.01710  1.0000
  Pd  Pd8       1.0  0.25117  0.37465  0.00160  1.0000
  Pd  Pd9       1.0  0.53870  0.50853  0.51119  1.0000
  Pd  Pd10      1.0  0.21296  0.60349  0.46298  1.0000
  Pd  Pd11      1.0  0.46550  0.74299  0.00834  1.0000
  Pd  Pd12      1.0  0.78758  0.64562  0.96403  1.0000
  Pd  Pd13      1.0  0.74910  0.87571  0.50006  1.0000
  Pd  Pd14      1.0  0.04610  0.76961  0.51753  1.0000
  Tl  Tl1       1.0  0.61517  0.19279  0.33761  1.0000
  Tl  Tl2       1.0  0.86858  0.06314  0.67778  1.0000
  Tl  Tl3       1.0  0.89015  0.29748  0.83846  1.0000
  Tl  Tl4       1.0  0.13347  0.18724  0.17678  1.0000
  Tl  Tl5       1.0  0.11077  0.42189  0.32613  1.0000
  Tl  Tl6       1.0  0.38651  0.32746  0.67448  1.0000
  Tl  Tl7       1.0  0.36570  0.56324  0.82348  1.0000
  Tl  Tl8       1.0  0.61008  0.45212  0.16190  1.0000
  Tl  Tl9       1.0  0.63357  0.68726  0.32514  1.0000
  Tl  Tl10      1.0  0.88353  0.55622  0.66388  1.0000
  Tl  Tl11      1.0  0.88484  0.82804  0.82801  1.0000
  Tl  Tl12      1.0  0.11874  0.69399  0.16392  1.0000
  Tl  Tl13      1.0  0.10889  0.95251  0.33756  1.0000
  Tl  Tl14      1.0  0.38909  0.79889  0.66105  1.0000
  Tl  Tl15      1.0  0.60980  0.92207  0.17542  1.0000
  Tl  Tl16      1.0  0.38807  0.05599  0.83520  1.0000
