data_image0
_chemical_formula_structural       Tl2Pd
_chemical_formula_sum              "Tl2 Pd1"
_cell_length_a       8.99356
_cell_length_b       8.99356
_cell_length_c       8.99356
_cell_angle_alpha    29.5735
_cell_angle_beta     29.5735
_cell_angle_gamma    29.5735

_space_group_name_H-M_alt    "P 1"
_space_group_IT_number       1

loop_
  _space_group_symop_operation_xyz
  'x, y, z'

loop_
  _atom_site_type_symbol
  _atom_site_label
  _atom_site_symmetry_multiplicity
  _atom_site_fract_x
  _atom_site_fract_y
  _atom_site_fract_z
  _atom_site_occupancy
  Tl  Tl1       1.0  0.73267  0.73267  0.73267  1.0000
  Tl  Tl2       1.0  0.26733  0.26733  0.26733  1.0000
  Pd  Pd1       1.0  0.00000  0.00000  0.00000  1.0000
