data_image0
_chemical_formula_structural       Se4Pd4
_chemical_formula_sum              "Se4 Pd4"
_cell_length_a       5.83112
_cell_length_b       5.83112
_cell_length_c       5.83112
_cell_angle_alpha    106.09
_cell_angle_beta     106.09
_cell_angle_gamma    116.47

_space_group_name_H-M_alt    "P 1"
_space_group_IT_number       1

loop_
  _space_group_symop_operation_xyz
  'x, y, z'

loop_
  _atom_site_type_symbol
  _atom_site_label
  _atom_site_symmetry_multiplicity
  _atom_site_fract_x
  _atom_site_fract_y
  _atom_site_fract_z
  _atom_site_occupancy
  Se  Se1       1.0  0.75000  0.75000  0.00000  1.0000
  Se  Se2       1.0  0.25000  0.25000  0.00000  1.0000
  Se  Se3       1.0  0.25000  0.75000  0.50000  1.0000
  Se  Se4       1.0  0.75000  0.25000  0.50000  1.0000
  Pd  Pd1       1.0  0.67075  0.17075  0.84150  1.0000
  Pd  Pd2       1.0  0.32925  0.82925  0.15850  1.0000
  Pd  Pd3       1.0  0.82925  0.67075  0.50000  1.0000
  Pd  Pd4       1.0  0.17075  0.32925  0.50000  1.0000
