data_image0
_chemical_formula_structural       Pd4Se6
_chemical_formula_sum              "Pd4 Se6"
_cell_length_a       4.29006
_cell_length_b       8.29712
_cell_length_c       11.6545
_cell_angle_alpha    75.6044
_cell_angle_beta     90
_cell_angle_gamma    90

_space_group_name_H-M_alt    "P 1"
_space_group_IT_number       1

loop_
  _space_group_symop_operation_xyz
  'x, y, z'

loop_
  _atom_site_type_symbol
  _atom_site_label
  _atom_site_symmetry_multiplicity
  _atom_site_fract_x
  _atom_site_fract_y
  _atom_site_fract_z
  _atom_site_occupancy
  Pd  Pd1       1.0  0.25000  0.88634  0.63494  1.0000
  Pd  Pd2       1.0  0.75000  0.11367  0.36506  1.0000
  Pd  Pd3       1.0  0.25000  0.67820  0.00080  1.0000
  Pd  Pd4       1.0  0.75000  0.32180  0.99920  1.0000
  Se  Se1       1.0  0.25000  0.27219  0.51309  1.0000
  Se  Se2       1.0  0.75000  0.72781  0.48691  1.0000
  Se  Se3       1.0  0.25000  0.02774  0.15727  1.0000
  Se  Se4       1.0  0.75000  0.97226  0.84273  1.0000
  Se  Se5       1.0  0.75000  0.52349  0.20562  1.0000
  Se  Se6       1.0  0.25000  0.47651  0.79438  1.0000
