data_image0
_chemical_formula_structural       Tl16Pd13
_chemical_formula_sum              "Tl16 Pd13"
_cell_length_a       10.9516
_cell_length_b       10.9516
_cell_length_c       10.9516
_cell_angle_alpha    109.723
_cell_angle_beta     109.723
_cell_angle_gamma    109.723

_space_group_name_H-M_alt    "P 1"
_space_group_IT_number       1

loop_
  _space_group_symop_operation_xyz
  'x, y, z'

loop_
  _atom_site_type_symbol
  _atom_site_label
  _atom_site_symmetry_multiplicity
  _atom_site_fract_x
  _atom_site_fract_y
  _atom_site_fract_z
  _atom_site_occupancy
  Tl  Tl1       1.0  0.99721  0.99721  0.99721  1.0000
  Tl  Tl2       1.0  0.34778  0.00108  0.00108  1.0000
  Tl  Tl3       1.0  0.31614  0.60157  0.99987  1.0000
  Tl  Tl4       1.0  0.00108  0.34778  0.00108  1.0000
  Tl  Tl5       1.0  0.60157  0.31614  0.99987  1.0000
  Tl  Tl6       1.0  0.40045  0.40045  0.71243  1.0000
  Tl  Tl7       1.0  0.28568  0.68352  0.68352  1.0000
  Tl  Tl8       1.0  0.68352  0.28568  0.68352  1.0000
  Tl  Tl9       1.0  0.31614  0.99987  0.60157  1.0000
  Tl  Tl10      1.0  0.99987  0.31614  0.60157  1.0000
  Tl  Tl11      1.0  0.40045  0.71243  0.40045  1.0000
  Tl  Tl12      1.0  0.71243  0.40045  0.40045  1.0000
  Tl  Tl13      1.0  0.00108  0.00108  0.34778  1.0000
  Tl  Tl14      1.0  0.60157  0.99987  0.31614  1.0000
  Tl  Tl15      1.0  0.99987  0.60157  0.31614  1.0000
  Tl  Tl16      1.0  0.68352  0.68352  0.28568  1.0000
  Pd  Pd1       1.0  0.63182  0.81288  0.99746  1.0000
  Pd  Pd2       1.0  0.81288  0.63182  0.99746  1.0000
  Pd  Pd3       1.0  0.18649  0.18649  0.81774  1.0000
  Pd  Pd4       1.0  0.63182  0.99746  0.81288  1.0000
  Pd  Pd5       1.0  0.99746  0.63182  0.81288  1.0000
  Pd  Pd6       1.0  0.65994  0.65994  0.65994  1.0000
  Pd  Pd7       1.0  0.81288  0.99746  0.63182  1.0000
  Pd  Pd8       1.0  0.99746  0.81288  0.63182  1.0000
  Pd  Pd9       1.0  0.18182  0.36742  0.36742  1.0000
  Pd  Pd10      1.0  0.36742  0.18182  0.36742  1.0000
  Pd  Pd11      1.0  0.18649  0.81774  0.18649  1.0000
  Pd  Pd12      1.0  0.81774  0.18649  0.18649  1.0000
  Pd  Pd13      1.0  0.36742  0.36742  0.18182  1.0000
