data_image0
_chemical_formula_structural       Tl8Pd6
_chemical_formula_sum              "Tl8 Pd6"
_cell_length_a       8.42623
_cell_length_b       8.42623
_cell_length_c       6.31064
_cell_angle_alpha    76.051
_cell_angle_beta     76.051
_cell_angle_gamma    116.676

_space_group_name_H-M_alt    "P 1"
_space_group_IT_number       1

loop_
  _space_group_symop_operation_xyz
  'x, y, z'

loop_
  _atom_site_type_symbol
  _atom_site_label
  _atom_site_symmetry_multiplicity
  _atom_site_fract_x
  _atom_site_fract_y
  _atom_site_fract_z
  _atom_site_occupancy
  Tl  Tl1       1.0  0.87882  0.61162  0.16546  1.0000
  Tl  Tl2       1.0  0.34874  0.34874  0.27654  1.0000
  Tl  Tl3       1.0  0.12118  0.38838  0.83454  1.0000
  Tl  Tl4       1.0  0.38838  0.12118  0.83454  1.0000
  Tl  Tl5       1.0  0.16612  0.83388  0.50000  1.0000
  Tl  Tl6       1.0  0.65126  0.65126  0.72346  1.0000
  Tl  Tl7       1.0  0.83388  0.16612  0.50000  1.0000
  Tl  Tl8       1.0  0.61162  0.87882  0.16546  1.0000
  Pd  Pd1       1.0  0.81789  0.42047  0.74475  1.0000
  Pd  Pd2       1.0  0.99328  0.99328  0.25048  1.0000
  Pd  Pd3       1.0  0.42047  0.81789  0.74475  1.0000
  Pd  Pd4       1.0  0.57953  0.18211  0.25525  1.0000
  Pd  Pd5       1.0  0.00672  0.00672  0.74952  1.0000
  Pd  Pd6       1.0  0.18211  0.57953  0.25525  1.0000
