data_image0
_chemical_formula_structural       Pd5Se8
_chemical_formula_sum              "Pd5 Se8"
_cell_length_a       7.18047
_cell_length_b       7.18047
_cell_length_c       8.69999
_cell_angle_alpha    53.0821
_cell_angle_beta     53.0821
_cell_angle_gamma    60.5664

_space_group_name_H-M_alt    "P 1"
_space_group_IT_number       1

loop_
  _space_group_symop_operation_xyz
  'x, y, z'

loop_
  _atom_site_type_symbol
  _atom_site_label
  _atom_site_symmetry_multiplicity
  _atom_site_fract_x
  _atom_site_fract_y
  _atom_site_fract_z
  _atom_site_occupancy
  Pd  Pd1       1.0  0.00000  0.00000  0.00000  1.0000
  Pd  Pd2       1.0  0.70686  0.29314  0.50000  1.0000
  Pd  Pd3       1.0  0.29314  0.70686  0.50000  1.0000
  Pd  Pd4       1.0  0.27440  0.27440  0.49151  1.0000
  Pd  Pd5       1.0  0.72560  0.72560  0.50849  1.0000
  Se  Se1       1.0  0.01718  0.01718  0.28917  1.0000
  Se  Se2       1.0  0.98282  0.98282  0.71083  1.0000
  Se  Se3       1.0  0.55761  0.55760  0.21906  1.0000
  Se  Se4       1.0  0.44239  0.44239  0.78094  1.0000
  Se  Se5       1.0  0.03912  0.54000  0.24780  1.0000
  Se  Se6       1.0  0.46000  0.96088  0.75220  1.0000
  Se  Se7       1.0  0.54000  0.03912  0.24780  1.0000
  Se  Se8       1.0  0.96088  0.46000  0.75220  1.0000
