data_image0
_chemical_formula_structural       Pd2Tl3
_chemical_formula_sum              "Pd2 Tl3"
_cell_length_a       9.3333
_cell_length_b       9.3333
_cell_length_c       9.3333
_cell_angle_alpha    147.093
_cell_angle_beta     130.601
_cell_angle_gamma    60.6372

_space_group_name_H-M_alt    "P 1"
_space_group_IT_number       1

loop_
  _space_group_symop_operation_xyz
  'x, y, z'

loop_
  _atom_site_type_symbol
  _atom_site_label
  _atom_site_symmetry_multiplicity
  _atom_site_fract_x
  _atom_site_fract_y
  _atom_site_fract_z
  _atom_site_occupancy
  Pd  Pd1       1.0  0.66715  0.65938  0.00777  1.0000
  Pd  Pd2       1.0  0.34839  0.34062  0.00777  1.0000
  Tl  Tl1       1.0  0.40587  0.16507  0.24081  1.0000
  Tl  Tl2       1.0  0.07574  0.83493  0.24081  1.0000
  Tl  Tl3       1.0  0.75285  0.50000  0.25284  1.0000
