data_image0
_chemical_formula_structural       Pd12Se14
_chemical_formula_sum              "Pd12 Se14"
_cell_length_a       5.7731
_cell_length_b       9.49849
_cell_length_c       11.1716
_cell_angle_alpha    90
_cell_angle_beta     90
_cell_angle_gamma    90

_space_group_name_H-M_alt    "P 1"
_space_group_IT_number       1

loop_
  _space_group_symop_operation_xyz
  'x, y, z'

loop_
  _atom_site_type_symbol
  _atom_site_label
  _atom_site_symmetry_multiplicity
  _atom_site_fract_x
  _atom_site_fract_y
  _atom_site_fract_z
  _atom_site_occupancy
  Pd  Pd1       1.0  0.00000  0.65653  0.95658  1.0000
  Pd  Pd2       1.0  0.00000  0.34347  0.04342  1.0000
  Pd  Pd3       1.0  0.00000  0.15653  0.54342  1.0000
  Pd  Pd4       1.0  0.00000  0.84347  0.45658  1.0000
  Pd  Pd5       1.0  0.50000  0.83208  0.91399  1.0000
  Pd  Pd6       1.0  0.50000  0.16792  0.08601  1.0000
  Pd  Pd7       1.0  0.50000  0.33208  0.58601  1.0000
  Pd  Pd8       1.0  0.50000  0.66792  0.41399  1.0000
  Pd  Pd9       1.0  0.50000  0.45041  0.87370  1.0000
  Pd  Pd10      1.0  0.50000  0.54959  0.12630  1.0000
  Pd  Pd11      1.0  0.50000  0.95041  0.62630  1.0000
  Pd  Pd12      1.0  0.50000  0.04959  0.37370  1.0000
  Se  Se1       1.0  0.00000  0.00000  0.00000  1.0000
  Se  Se2       1.0  0.00000  0.50000  0.50000  1.0000
  Se  Se3       1.0  0.00000  0.90333  0.75252  1.0000
  Se  Se4       1.0  0.00000  0.09667  0.24748  1.0000
  Se  Se5       1.0  0.00000  0.40333  0.74748  1.0000
  Se  Se6       1.0  0.00000  0.59667  0.25252  1.0000
  Se  Se7       1.0  0.74394  0.15484  0.81921  1.0000
  Se  Se8       1.0  0.74394  0.84516  0.18079  1.0000
  Se  Se9       1.0  0.25606  0.65484  0.68079  1.0000
  Se  Se10      1.0  0.25606  0.34516  0.31921  1.0000
  Se  Se11      1.0  0.25606  0.84516  0.18079  1.0000
  Se  Se12      1.0  0.25606  0.15484  0.81921  1.0000
  Se  Se13      1.0  0.74394  0.34516  0.31921  1.0000
  Se  Se14      1.0  0.74394  0.65484  0.68079  1.0000
