data_image0
_chemical_formula_structural       Tl17Pd10
_chemical_formula_sum              "Tl17 Pd10"
_cell_length_a       5.42537
_cell_length_b       5.42537
_cell_length_c       43.9108
_cell_angle_alpha    86.3071
_cell_angle_beta     86.3071
_cell_angle_gamma    59.8678

_space_group_name_H-M_alt    "P 1"
_space_group_IT_number       1

loop_
  _space_group_symop_operation_xyz
  'x, y, z'

loop_
  _atom_site_type_symbol
  _atom_site_label
  _atom_site_symmetry_multiplicity
  _atom_site_fract_x
  _atom_site_fract_y
  _atom_site_fract_z
  _atom_site_occupancy
  Tl  Tl1       1.0  0.31611  0.31611  0.03537  1.0000
  Tl  Tl2       1.0  0.62616  0.62616  0.12067  1.0000
  Tl  Tl3       1.0  0.93694  0.93694  0.21689  1.0000
  Tl  Tl4       1.0  0.21153  0.21153  0.32987  1.0000
  Tl  Tl5       1.0  0.52376  0.52376  0.42784  1.0000
  Tl  Tl6       1.0  0.51792  0.51792  0.26968  1.0000
  Tl  Tl7       1.0  0.83789  0.83789  0.52295  1.0000
  Tl  Tl8       1.0  0.87414  0.87414  0.37803  1.0000
  Tl  Tl9       1.0  0.10859  0.10859  0.63034  1.0000
  Tl  Tl10      1.0  0.43232  0.43232  0.71158  1.0000
  Tl  Tl11      1.0  0.42227  0.42227  0.57273  1.0000
  Tl  Tl12      1.0  0.71967  0.71967  0.81180  1.0000
  Tl  Tl13      1.0  0.04535  0.04535  0.83454  1.0000
  Tl  Tl14      1.0  0.00577  0.00577  0.93232  1.0000
  Tl  Tl15      1.0  0.33205  0.33205  0.95535  1.0000
  Tl  Tl16      1.0  0.36668  0.36668  0.86768  1.0000
  Tl  Tl17      1.0  0.65922  0.65922  0.98279  1.0000
  Pd  Pd1       1.0  0.99076  0.99076  0.01277  1.0000
  Pd  Pd2       1.0  0.29592  0.29592  0.10650  1.0000
  Pd  Pd3       1.0  0.89556  0.89556  0.30189  1.0000
  Pd  Pd4       1.0  0.60863  0.60863  0.19893  1.0000
  Pd  Pd5       1.0  0.51171  0.51171  0.50104  1.0000
  Pd  Pd6       1.0  0.20087  0.20088  0.40443  1.0000
  Pd  Pd7       1.0  0.79334  0.79334  0.60220  1.0000
  Pd  Pd8       1.0  0.10049  0.10049  0.70173  1.0000
  Pd  Pd9       1.0  0.68701  0.68701  0.90115  1.0000
  Pd  Pd10      1.0  0.39233  0.39233  0.78994  1.0000
