data_image0
_chemical_formula_structural       Pd4Se16
_chemical_formula_sum              "Pd4 Se16"
_cell_length_a       7.24582
_cell_length_b       14.1262
_cell_length_c       14.7895
_cell_angle_alpha    61.5416
_cell_angle_beta     90
_cell_angle_gamma    90

_space_group_name_H-M_alt    "P 1"
_space_group_IT_number       1

loop_
  _space_group_symop_operation_xyz
  'x, y, z'

loop_
  _atom_site_type_symbol
  _atom_site_label
  _atom_site_symmetry_multiplicity
  _atom_site_fract_x
  _atom_site_fract_y
  _atom_site_fract_z
  _atom_site_occupancy
  Pd  Pd1       1.0  0.92684  0.13855  0.25733  1.0000
  Pd  Pd2       1.0  0.07316  0.86145  0.74267  1.0000
  Pd  Pd3       1.0  0.07316  0.63855  0.25733  1.0000
  Pd  Pd4       1.0  0.92684  0.36145  0.74267  1.0000
  Se  Se1       1.0  0.07999  0.33732  0.61459  1.0000
  Se  Se2       1.0  0.91693  0.51067  0.22624  1.0000
  Se  Se3       1.0  0.92493  0.30364  0.10404  1.0000
  Se  Se4       1.0  0.92001  0.66268  0.38541  1.0000
  Se  Se5       1.0  0.91693  0.98933  0.77376  1.0000
  Se  Se6       1.0  0.37702  0.57933  0.31069  1.0000
  Se  Se7       1.0  0.62298  0.42067  0.68931  1.0000
  Se  Se8       1.0  0.92001  0.83732  0.61459  1.0000
  Se  Se9       1.0  0.37702  0.92067  0.68931  1.0000
  Se  Se10      1.0  0.07507  0.69636  0.89596  1.0000
  Se  Se11      1.0  0.62298  0.07933  0.31069  1.0000
  Se  Se12      1.0  0.08306  0.01067  0.22624  1.0000
  Se  Se13      1.0  0.07999  0.16268  0.38541  1.0000
  Se  Se14      1.0  0.07507  0.80364  0.10404  1.0000
  Se  Se15      1.0  0.92493  0.19636  0.89596  1.0000
  Se  Se16      1.0  0.08306  0.48933  0.77376  1.0000
