data_image0
_chemical_formula_structural       Pd4Tl7
_chemical_formula_sum              "Pd4 Tl7"
_cell_length_a       6.77224
_cell_length_b       6.77224
_cell_length_c       9.76397
_cell_angle_alpha    90
_cell_angle_beta     90
_cell_angle_gamma    90

_space_group_name_H-M_alt    "P 1"
_space_group_IT_number       1

loop_
  _space_group_symop_operation_xyz
  'x, y, z'

loop_
  _atom_site_type_symbol
  _atom_site_label
  _atom_site_symmetry_multiplicity
  _atom_site_fract_x
  _atom_site_fract_y
  _atom_site_fract_z
  _atom_site_occupancy
  Pd  Pd1       1.0  0.24654  0.24654  0.27220  1.0000
  Pd  Pd2       1.0  0.75346  0.75346  0.27220  1.0000
  Pd  Pd3       1.0  0.24654  0.75346  0.72780  1.0000
  Pd  Pd4       1.0  0.75346  0.24654  0.72780  1.0000
  Tl  Tl1       1.0  0.25295  0.25295  0.63566  1.0000
  Tl  Tl2       1.0  0.74705  0.74705  0.63566  1.0000
  Tl  Tl3       1.0  0.25295  0.74705  0.36434  1.0000
  Tl  Tl4       1.0  0.74705  0.25295  0.36434  1.0000
  Tl  Tl5       1.0  0.00000  0.00000  0.00000  1.0000
  Tl  Tl6       1.0  0.50000  0.00000  0.00000  1.0000
  Tl  Tl7       1.0  0.00000  0.50000  0.00000  1.0000
