data_image0
_chemical_formula_structural       Pd4Tl4
_chemical_formula_sum              "Pd4 Tl4"
_cell_length_a       7.04651
_cell_length_b       7.04651
_cell_length_c       7.06194
_cell_angle_alpha    90
_cell_angle_beta     90
_cell_angle_gamma    119.05

_space_group_name_H-M_alt    "P 1"
_space_group_IT_number       1

loop_
  _space_group_symop_operation_xyz
  'x, y, z'

loop_
  _atom_site_type_symbol
  _atom_site_label
  _atom_site_symmetry_multiplicity
  _atom_site_fract_x
  _atom_site_fract_y
  _atom_site_fract_z
  _atom_site_occupancy
  Pd  Pd1       1.0  0.34071  0.34071  0.82276  1.0000
  Pd  Pd2       1.0  0.65929  0.65929  0.17724  1.0000
  Pd  Pd3       1.0  0.84071  0.84071  0.67724  1.0000
  Pd  Pd4       1.0  0.15929  0.15929  0.32276  1.0000
  Tl  Tl1       1.0  0.79061  0.20939  0.00000  1.0000
  Tl  Tl2       1.0  0.29061  0.70939  0.50000  1.0000
  Tl  Tl3       1.0  0.70939  0.29061  0.50000  1.0000
  Tl  Tl4       1.0  0.20939  0.79061  0.00000  1.0000
