data_image0
_chemical_formula_structural       Pd16Tl28
_chemical_formula_sum              "Pd16 Tl28"
_cell_length_a       13.4055
_cell_length_b       13.4055
_cell_length_c       13.4055
_cell_angle_alpha    109.44
_cell_angle_beta     109.44
_cell_angle_gamma    109.534

_space_group_name_H-M_alt    "P 1"
_space_group_IT_number       1

loop_
  _space_group_symop_operation_xyz
  'x, y, z'

loop_
  _atom_site_type_symbol
  _atom_site_label
  _atom_site_symmetry_multiplicity
  _atom_site_fract_x
  _atom_site_fract_y
  _atom_site_fract_z
  _atom_site_occupancy
  Pd  Pd1       1.0  0.77234  0.99920  0.25562  1.0000
  Pd  Pd2       1.0  0.25776  0.23288  0.50000  1.0000
  Pd  Pd3       1.0  0.49920  0.27234  0.25562  1.0000
  Pd  Pd4       1.0  0.47968  0.97968  0.50000  1.0000
  Pd  Pd5       1.0  0.73288  0.75776  0.50000  1.0000
  Pd  Pd6       1.0  0.97968  0.47968  0.50000  1.0000
  Pd  Pd7       1.0  0.74359  0.51673  0.74438  1.0000
  Pd  Pd8       1.0  0.51673  0.77234  0.77314  1.0000
  Pd  Pd9       1.0  0.27234  0.01673  0.77314  1.0000
  Pd  Pd10      1.0  0.00510  0.00510  0.00000  1.0000
  Pd  Pd11      1.0  0.23288  0.73288  0.97511  1.0000
  Pd  Pd12      1.0  0.50510  0.50510  0.00000  1.0000
  Pd  Pd13      1.0  0.01673  0.24359  0.74438  1.0000
  Pd  Pd14      1.0  0.75776  0.25776  0.02489  1.0000
  Pd  Pd15      1.0  0.24359  0.49920  0.22686  1.0000
  Pd  Pd16      1.0  0.99920  0.74359  0.22686  1.0000
  Tl  Tl1       1.0  0.77858  0.75223  0.26997  1.0000
  Tl  Tl2       1.0  0.50533  0.23087  0.50000  1.0000
  Tl  Tl3       1.0  0.49442  0.51631  0.24767  1.0000
  Tl  Tl4       1.0  0.73087  0.00533  0.50000  1.0000
  Tl  Tl5       1.0  0.75754  0.52771  0.50000  1.0000
  Tl  Tl6       1.0  0.25223  0.27858  0.26997  1.0000
  Tl  Tl7       1.0  0.46225  0.73284  0.50000  1.0000
  Tl  Tl8       1.0  0.00533  0.50533  0.27446  1.0000
  Tl  Tl9       1.0  0.23284  0.96225  0.50000  1.0000
  Tl  Tl10      1.0  0.98226  0.25223  0.97366  1.0000
  Tl  Tl11      1.0  0.52771  0.02771  0.77017  1.0000
  Tl  Tl12      1.0  0.96225  0.46225  0.72941  1.0000
  Tl  Tl13      1.0  0.74675  0.76865  0.75233  1.0000
  Tl  Tl14      1.0  0.23087  0.73087  0.72554  1.0000
  Tl  Tl15      1.0  0.00860  0.98226  0.73003  1.0000
  Tl  Tl16      1.0  0.48226  0.50860  0.73003  1.0000
  Tl  Tl17      1.0  0.76865  0.01632  0.02190  1.0000
  Tl  Tl18      1.0  0.02771  0.25754  0.50000  1.0000
  Tl  Tl19      1.0  0.75223  0.48226  0.97366  1.0000
  Tl  Tl20      1.0  0.01632  0.99442  0.24767  1.0000
  Tl  Tl21      1.0  0.50861  0.77858  0.02635  1.0000
  Tl  Tl22      1.0  0.26865  0.24675  0.75233  1.0000
  Tl  Tl23      1.0  0.73284  0.23284  0.27059  1.0000
  Tl  Tl24      1.0  0.27858  0.00861  0.02635  1.0000
  Tl  Tl25      1.0  0.99442  0.74675  0.97810  1.0000
  Tl  Tl26      1.0  0.24675  0.49442  0.97810  1.0000
  Tl  Tl27      1.0  0.51632  0.26865  0.02190  1.0000
  Tl  Tl28      1.0  0.25754  0.75754  0.22983  1.0000
