data_image0
_chemical_formula_structural       Tl2Pd2
_chemical_formula_sum              "Tl2 Pd2"
_cell_length_a       6.57183
_cell_length_b       6.57183
_cell_length_c       5.66767
_cell_angle_alpha    79.0229
_cell_angle_beta     79.0229
_cell_angle_gamma    33.5691

_space_group_name_H-M_alt    "P 1"
_space_group_IT_number       1

loop_
  _space_group_symop_operation_xyz
  'x, y, z'

loop_
  _atom_site_type_symbol
  _atom_site_label
  _atom_site_symmetry_multiplicity
  _atom_site_fract_x
  _atom_site_fract_y
  _atom_site_fract_z
  _atom_site_occupancy
  Tl  Tl1       1.0  0.87290  0.87290  0.79144  1.0000
  Tl  Tl2       1.0  0.12710  0.12710  0.20856  1.0000
  Pd  Pd1       1.0  0.61845  0.61845  0.72198  1.0000
  Pd  Pd2       1.0  0.38155  0.38155  0.27802  1.0000
