data_image0
_chemical_formula_structural       PdTl8
_chemical_formula_sum              "Pd1 Tl8"
_cell_length_a       11.5612
_cell_length_b       11.5612
_cell_length_c       11.5612
_cell_angle_alpha    119.245
_cell_angle_beta     119.245
_cell_angle_gamma    91.3122

_space_group_name_H-M_alt    "P 1"
_space_group_IT_number       1

loop_
  _space_group_symop_operation_xyz
  'x, y, z'

loop_
  _atom_site_type_symbol
  _atom_site_label
  _atom_site_symmetry_multiplicity
  _atom_site_fract_x
  _atom_site_fract_y
  _atom_site_fract_z
  _atom_site_occupancy
  Pd  Pd1       1.0  0.00000  0.00000  0.00000  1.0000
  Tl  Tl1       1.0  0.00000  0.50000  0.50000  1.0000
  Tl  Tl2       1.0  0.50000  1.00000  0.50000  1.0000
  Tl  Tl3       1.0  0.67446  0.93264  0.60711  1.0000
  Tl  Tl4       1.0  0.32554  0.06736  0.39289  1.0000
  Tl  Tl5       1.0  0.93264  0.32554  0.25818  1.0000
  Tl  Tl6       1.0  0.06736  0.67446  0.74182  1.0000
  Tl  Tl7       1.0  0.72877  0.72877  0.00000  1.0000
  Tl  Tl8       1.0  0.27123  0.27123  0.00000  1.0000
