data_image0
_chemical_formula_structural       Tl13Pd3
_chemical_formula_sum              "Tl13 Pd3"
_cell_length_a       5.27889
_cell_length_b       6.59861
_cell_length_c       11.3626
_cell_angle_alpha    90
_cell_angle_beta     90
_cell_angle_gamma    90

_space_group_name_H-M_alt    "P 1"
_space_group_IT_number       1

loop_
  _space_group_symop_operation_xyz
  'x, y, z'

loop_
  _atom_site_type_symbol
  _atom_site_label
  _atom_site_symmetry_multiplicity
  _atom_site_fract_x
  _atom_site_fract_y
  _atom_site_fract_z
  _atom_site_occupancy
  Tl  Tl1       1.0  0.50000  0.50000  0.33032  1.0000
  Tl  Tl2       1.0  0.50000  0.00000  0.84232  1.0000
  Tl  Tl3       1.0  0.50000  0.74614  0.08435  1.0000
  Tl  Tl4       1.0  0.50000  0.25923  0.58192  1.0000
  Tl  Tl5       1.0  0.50000  0.25386  0.08435  1.0000
  Tl  Tl6       1.0  0.50000  0.74077  0.58192  1.0000
  Tl  Tl7       1.0  0.00000  0.00000  0.16198  1.0000
  Tl  Tl8       1.0  0.00000  0.50000  0.65781  1.0000
  Tl  Tl9       1.0  0.00000  0.73240  0.40860  1.0000
  Tl  Tl10      1.0  0.00000  0.24748  0.92808  1.0000
  Tl  Tl11      1.0  0.00000  0.26760  0.40860  1.0000
  Tl  Tl12      1.0  0.00000  0.75253  0.92808  1.0000
  Tl  Tl13      1.0  0.00000  0.50000  0.16876  1.0000
  Pd  Pd1       1.0  0.00000  0.00000  0.66475  1.0000
  Pd  Pd2       1.0  0.50000  0.00000  0.33614  1.0000
  Pd  Pd3       1.0  0.50000  0.50000  0.83195  1.0000
