data_image0
_chemical_formula_structural       Pd2Tl2
_chemical_formula_sum              "Pd2 Tl2"
_cell_length_a       6.30673
_cell_length_b       6.30673
_cell_length_c       6.30673
_cell_angle_alpha    143.68
_cell_angle_beta     128.995
_cell_angle_gamma    64.2161

_space_group_name_H-M_alt    "P 1"
_space_group_IT_number       1

loop_
  _space_group_symop_operation_xyz
  'x, y, z'

loop_
  _atom_site_type_symbol
  _atom_site_label
  _atom_site_symmetry_multiplicity
  _atom_site_fract_x
  _atom_site_fract_y
  _atom_site_fract_z
  _atom_site_occupancy
  Pd  Pd1       1.0  0.38269  0.63269  0.75000  1.0000
  Pd  Pd2       1.0  0.61731  0.36731  0.25000  1.0000
  Tl  Tl1       1.0  0.13376  0.88377  0.25000  1.0000
  Tl  Tl2       1.0  0.86624  0.11623  0.75000  1.0000
