data_image0
_chemical_formula_structural       Pd9Tl10
_chemical_formula_sum              "Pd9 Tl10"
_cell_length_a       8.39785
_cell_length_b       8.66582
_cell_length_c       11.0006
_cell_angle_alpha    100.301
_cell_angle_beta     111.145
_cell_angle_gamma    90.9361

_space_group_name_H-M_alt    "P 1"
_space_group_IT_number       1

loop_
  _space_group_symop_operation_xyz
  'x, y, z'

loop_
  _atom_site_type_symbol
  _atom_site_label
  _atom_site_symmetry_multiplicity
  _atom_site_fract_x
  _atom_site_fract_y
  _atom_site_fract_z
  _atom_site_occupancy
  Pd  Pd1       1.0  0.08672  0.72086  0.68826  1.0000
  Pd  Pd2       1.0  0.18644  0.39696  0.88618  1.0000
  Pd  Pd3       1.0  0.40290  0.81132  0.31297  1.0000
  Pd  Pd4       1.0  0.59710  0.18868  0.68703  1.0000
  Pd  Pd5       1.0  0.50000  0.50000  0.50000  1.0000
  Pd  Pd6       1.0  0.68411  0.89615  0.90074  1.0000
  Pd  Pd7       1.0  0.81356  0.60305  0.11382  1.0000
  Pd  Pd8       1.0  0.91328  0.27914  0.31174  1.0000
  Pd  Pd9       1.0  0.31589  0.10385  0.09926  1.0000
  Tl  Tl1       1.0  0.47672  0.54690  0.80131  1.0000
  Tl  Tl2       1.0  0.71088  0.84759  0.60855  1.0000
  Tl  Tl3       1.0  0.87709  0.36416  0.59680  1.0000
  Tl  Tl4       1.0  0.31330  0.05206  0.79775  1.0000
  Tl  Tl5       1.0  0.12291  0.63584  0.40320  1.0000
  Tl  Tl6       1.0  0.08201  0.75191  0.99680  1.0000
  Tl  Tl7       1.0  0.28911  0.15241  0.39146  1.0000
  Tl  Tl8       1.0  0.52328  0.45310  0.19869  1.0000
  Tl  Tl9       1.0  0.68670  0.94794  0.20225  1.0000
  Tl  Tl10      1.0  0.91799  0.24809  0.00320  1.0000
