data_image0
_chemical_formula_structural       Pd8Tl20
_chemical_formula_sum              "Pd8 Tl20"
_cell_length_a       10.8517
_cell_length_b       12.1776
_cell_length_c       12.345
_cell_angle_alpha    110.225
_cell_angle_beta     112.201
_cell_angle_gamma    87.067

_space_group_name_H-M_alt    "P 1"
_space_group_IT_number       1

loop_
  _space_group_symop_operation_xyz
  'x, y, z'

loop_
  _atom_site_type_symbol
  _atom_site_label
  _atom_site_symmetry_multiplicity
  _atom_site_fract_x
  _atom_site_fract_y
  _atom_site_fract_z
  _atom_site_occupancy
  Pd  Pd1       1.0  0.42570  0.57808  0.14276  1.0000
  Pd  Pd2       1.0  0.57430  0.42192  0.85724  1.0000
  Pd  Pd3       1.0  0.94351  0.91167  0.09780  1.0000
  Pd  Pd4       1.0  0.05648  0.08833  0.90220  1.0000
  Pd  Pd5       1.0  0.82157  0.48013  0.25047  1.0000
  Pd  Pd6       1.0  0.17843  0.51987  0.74953  1.0000
  Pd  Pd7       1.0  0.30394  0.14184  0.29037  1.0000
  Pd  Pd8       1.0  0.69606  0.85816  0.70963  1.0000
  Tl  Tl1       1.0  0.97667  0.21874  0.16848  1.0000
  Tl  Tl2       1.0  0.02333  0.78126  0.83152  1.0000
  Tl  Tl3       1.0  0.27067  0.84302  0.25974  1.0000
  Tl  Tl4       1.0  0.72933  0.15698  0.74026  1.0000
  Tl  Tl5       1.0  0.46545  0.69303  0.94461  1.0000
  Tl  Tl6       1.0  0.53455  0.30696  0.05539  1.0000
  Tl  Tl7       1.0  0.28114  0.25264  0.59555  1.0000
  Tl  Tl8       1.0  0.71886  0.74736  0.40445  1.0000
  Tl  Tl9       1.0  0.13657  0.04022  0.63212  1.0000
  Tl  Tl10      1.0  0.86343  0.95978  0.36788  1.0000
  Tl  Tl11      1.0  0.31965  0.83471  0.53526  1.0000
  Tl  Tl12      1.0  0.68035  0.16529  0.46474  1.0000
  Tl  Tl13      1.0  0.39830  0.08477  0.04657  1.0000
  Tl  Tl14      1.0  0.60170  0.91523  0.95343  1.0000
  Tl  Tl15      1.0  0.83921  0.41688  0.52077  1.0000
  Tl  Tl16      1.0  0.16079  0.58312  0.47923  1.0000
  Tl  Tl17      1.0  0.62433  0.54890  0.63668  1.0000
  Tl  Tl18      1.0  0.37567  0.45110  0.36332  1.0000
  Tl  Tl19      1.0  0.10741  0.41462  0.95207  1.0000
  Tl  Tl20      1.0  0.89259  0.58538  0.04793  1.0000
