data_image0
_chemical_formula_structural       Pd16Tl18
_chemical_formula_sum              "Pd16 Tl18"
_cell_length_a       11.3711
_cell_length_b       11.3711
_cell_length_c       8.24365
_cell_angle_alpha    90
_cell_angle_beta     90
_cell_angle_gamma    90

_space_group_name_H-M_alt    "P 1"
_space_group_IT_number       1

loop_
  _space_group_symop_operation_xyz
  'x, y, z'

loop_
  _atom_site_type_symbol
  _atom_site_label
  _atom_site_symmetry_multiplicity
  _atom_site_fract_x
  _atom_site_fract_y
  _atom_site_fract_z
  _atom_site_occupancy
  Pd  Pd1       1.0  0.50000  0.00000  0.42208  1.0000
  Pd  Pd2       1.0  0.85829  0.00000  0.85238  1.0000
  Pd  Pd3       1.0  0.00000  0.50000  0.07994  1.0000
  Pd  Pd4       1.0  0.00000  0.14171  0.14762  1.0000
  Pd  Pd5       1.0  0.00000  0.85829  0.14762  1.0000
  Pd  Pd6       1.0  0.64171  0.50000  0.14762  1.0000
  Pd  Pd7       1.0  0.50000  0.00000  0.92006  1.0000
  Pd  Pd8       1.0  0.14171  0.00000  0.85238  1.0000
  Pd  Pd9       1.0  0.35829  0.50000  0.14762  1.0000
  Pd  Pd10      1.0  0.25000  0.75000  0.00000  1.0000
  Pd  Pd11      1.0  0.50000  0.35829  0.85238  1.0000
  Pd  Pd12      1.0  0.00000  0.50000  0.57792  1.0000
  Pd  Pd13      1.0  0.75000  0.25000  0.00000  1.0000
  Pd  Pd14      1.0  0.50000  0.64171  0.85238  1.0000
  Pd  Pd15      1.0  0.75000  0.75000  0.00000  1.0000
  Pd  Pd16      1.0  0.25000  0.25000  0.00000  1.0000
  Tl  Tl1       1.0  0.66511  0.16511  0.65308  1.0000
  Tl  Tl2       1.0  0.50000  0.23708  0.19219  1.0000
  Tl  Tl3       1.0  0.00000  0.00000  0.50000  1.0000
  Tl  Tl4       1.0  0.16511  0.66511  0.34692  1.0000
  Tl  Tl5       1.0  0.23708  0.50000  0.80781  1.0000
  Tl  Tl6       1.0  0.66511  0.83489  0.65308  1.0000
  Tl  Tl7       1.0  0.00000  0.26292  0.80781  1.0000
  Tl  Tl8       1.0  0.73708  0.00000  0.19219  1.0000
  Tl  Tl9       1.0  0.50000  0.76292  0.19219  1.0000
  Tl  Tl10      1.0  0.26292  0.00000  0.19219  1.0000
  Tl  Tl11      1.0  0.33489  0.83489  0.65308  1.0000
  Tl  Tl12      1.0  0.76292  0.50000  0.80781  1.0000
  Tl  Tl13      1.0  0.50000  0.50000  0.50000  1.0000
  Tl  Tl14      1.0  0.00000  0.73708  0.80781  1.0000
  Tl  Tl15      1.0  0.16511  0.33489  0.34692  1.0000
  Tl  Tl16      1.0  0.83489  0.33489  0.34692  1.0000
  Tl  Tl17      1.0  0.33489  0.16511  0.65308  1.0000
  Tl  Tl18      1.0  0.83489  0.66511  0.34692  1.0000
