data_image0
_chemical_formula_structural       Pd2Tl17
_chemical_formula_sum              "Pd2 Tl17"
_cell_length_a       7.31627
_cell_length_b       7.31627
_cell_length_c       7.31627
_cell_angle_alpha    82.5209
_cell_angle_beta     82.5209
_cell_angle_gamma    82.5209

_space_group_name_H-M_alt    "P 1"
_space_group_IT_number       1

loop_
  _space_group_symop_operation_xyz
  'x, y, z'

loop_
  _atom_site_type_symbol
  _atom_site_label
  _atom_site_symmetry_multiplicity
  _atom_site_fract_x
  _atom_site_fract_y
  _atom_site_fract_z
  _atom_site_occupancy
  Pd  Pd1       1.0  0.65866  0.65866  0.65866  1.0000
  Pd  Pd2       1.0  0.34134  0.34134  0.34134  1.0000
  Tl  Tl1       1.0  0.00000  0.00000  0.50000  1.0000
  Tl  Tl2       1.0  0.50000  0.00000  0.00000  1.0000
  Tl  Tl3       1.0  1.00000  0.50000  0.00000  1.0000
  Tl  Tl4       1.0  0.70988  0.29012  0.00000  1.0000
  Tl  Tl5       1.0  1.00000  0.70988  0.29012  1.0000
  Tl  Tl6       1.0  0.29012  0.00000  0.70988  1.0000
  Tl  Tl7       1.0  1.00000  0.29012  0.70988  1.0000
  Tl  Tl8       1.0  0.70988  1.00000  0.29012  1.0000
  Tl  Tl9       1.0  0.29012  0.70988  0.00000  1.0000
  Tl  Tl10      1.0  0.34171  0.34171  0.84366  1.0000
  Tl  Tl11      1.0  0.84366  0.34171  0.34171  1.0000
  Tl  Tl12      1.0  0.34171  0.84366  0.34171  1.0000
  Tl  Tl13      1.0  0.65829  0.65829  0.15634  1.0000
  Tl  Tl14      1.0  0.15634  0.65829  0.65829  1.0000
  Tl  Tl15      1.0  0.65829  0.15634  0.65829  1.0000
  Tl  Tl16      1.0  0.90444  0.90444  0.90444  1.0000
  Tl  Tl17      1.0  0.09556  0.09556  0.09556  1.0000
