data_image0
_chemical_formula_structural       Pd2Tl26
_chemical_formula_sum              "Pd2 Tl26"
_cell_length_a       9.9242
_cell_length_b       9.9242
_cell_length_c       9.9242
_cell_angle_alpha    60
_cell_angle_beta     60
_cell_angle_gamma    60

_space_group_name_H-M_alt    "P 1"
_space_group_IT_number       1

loop_
  _space_group_symop_operation_xyz
  'x, y, z'

loop_
  _atom_site_type_symbol
  _atom_site_label
  _atom_site_symmetry_multiplicity
  _atom_site_fract_x
  _atom_site_fract_y
  _atom_site_fract_z
  _atom_site_occupancy
  Pd  Pd1       1.0  0.25000  0.25000  0.25000  1.0000
  Pd  Pd2       1.0  0.75000  0.75000  0.75000  1.0000
  Tl  Tl1       1.0  0.50000  0.50000  0.50000  1.0000
  Tl  Tl2       1.0  0.00000  0.00000  0.00000  1.0000
  Tl  Tl3       1.0  0.78761  0.56350  0.21239  1.0000
  Tl  Tl4       1.0  0.21239  0.43650  0.78761  1.0000
  Tl  Tl5       1.0  0.56350  0.78761  0.43650  1.0000
  Tl  Tl6       1.0  0.43650  0.21239  0.56350  1.0000
  Tl  Tl7       1.0  0.28761  0.93650  0.71239  1.0000
  Tl  Tl8       1.0  0.71239  0.06350  0.28761  1.0000
  Tl  Tl9       1.0  0.93650  0.28761  0.06350  1.0000
  Tl  Tl10      1.0  0.06350  0.71239  0.93650  1.0000
  Tl  Tl11      1.0  0.21239  0.78761  0.56350  1.0000
  Tl  Tl12      1.0  0.78761  0.21239  0.43650  1.0000
  Tl  Tl13      1.0  0.43650  0.56350  0.78761  1.0000
  Tl  Tl14      1.0  0.56350  0.43650  0.21239  1.0000
  Tl  Tl15      1.0  0.71239  0.28761  0.93650  1.0000
  Tl  Tl16      1.0  0.28761  0.71239  0.06350  1.0000
  Tl  Tl17      1.0  0.06350  0.93650  0.28761  1.0000
  Tl  Tl18      1.0  0.93650  0.06350  0.71239  1.0000
  Tl  Tl19      1.0  0.56350  0.21239  0.78761  1.0000
  Tl  Tl20      1.0  0.43650  0.78761  0.21239  1.0000
  Tl  Tl21      1.0  0.78761  0.43650  0.56350  1.0000
  Tl  Tl22      1.0  0.21239  0.56350  0.43650  1.0000
  Tl  Tl23      1.0  0.93650  0.71239  0.28761  1.0000
  Tl  Tl24      1.0  0.06350  0.28761  0.71239  1.0000
  Tl  Tl25      1.0  0.28761  0.06350  0.93650  1.0000
  Tl  Tl26      1.0  0.71239  0.93650  0.06350  1.0000
