data_image0
_chemical_formula_structural       Tl20Pd20
_chemical_formula_sum              "Tl20 Pd20"
_cell_length_a       4.43969
_cell_length_b       5.8881
_cell_length_c       38.1029
_cell_angle_alpha    90
_cell_angle_beta     90
_cell_angle_gamma    90

_space_group_name_H-M_alt    "P 1"
_space_group_IT_number       1

loop_
  _space_group_symop_operation_xyz
  'x, y, z'

loop_
  _atom_site_type_symbol
  _atom_site_label
  _atom_site_symmetry_multiplicity
  _atom_site_fract_x
  _atom_site_fract_y
  _atom_site_fract_z
  _atom_site_occupancy
  Tl  Tl1       1.0  0.75000  0.86656  0.63608  1.0000
  Tl  Tl2       1.0  0.75000  0.62664  0.33608  1.0000
  Tl  Tl3       1.0  0.75000  0.63270  0.93600  1.0000
  Tl  Tl4       1.0  0.75000  0.87336  0.83608  1.0000
  Tl  Tl5       1.0  0.25000  0.13344  0.36392  1.0000
  Tl  Tl6       1.0  0.25000  0.89258  0.26411  1.0000
  Tl  Tl7       1.0  0.25000  0.13255  0.96407  1.0000
  Tl  Tl8       1.0  0.25000  0.36656  0.86392  1.0000
  Tl  Tl9       1.0  0.75000  0.39258  0.23589  1.0000
  Tl  Tl10      1.0  0.25000  0.13270  0.56400  1.0000
  Tl  Tl11      1.0  0.75000  0.86730  0.43600  1.0000
  Tl  Tl12      1.0  0.25000  0.12664  0.16392  1.0000
  Tl  Tl13      1.0  0.75000  0.63344  0.13608  1.0000
  Tl  Tl14      1.0  0.25000  0.36730  0.06400  1.0000
  Tl  Tl15      1.0  0.75000  0.63255  0.53593  1.0000
  Tl  Tl16      1.0  0.75000  0.10742  0.73589  1.0000
  Tl  Tl17      1.0  0.25000  0.37336  0.66392  1.0000
  Tl  Tl18      1.0  0.25000  0.36745  0.46407  1.0000
  Tl  Tl19      1.0  0.75000  0.86745  0.03593  1.0000
  Tl  Tl20      1.0  0.25000  0.60742  0.76411  1.0000
  Pd  Pd1       1.0  0.75000  0.37685  0.60693  1.0000
  Pd  Pd2       1.0  0.25000  0.87670  0.49301  1.0000
  Pd  Pd3       1.0  0.75000  0.13685  0.30697  1.0000
  Pd  Pd4       1.0  0.75000  0.12330  0.50699  1.0000
  Pd  Pd5       1.0  0.75000  0.61643  0.70716  1.0000
  Pd  Pd6       1.0  0.25000  0.62391  0.59284  1.0000
  Pd  Pd7       1.0  0.75000  0.36315  0.80697  1.0000
  Pd  Pd8       1.0  0.25000  0.62330  0.99302  1.0000
  Pd  Pd9       1.0  0.25000  0.38357  0.29284  1.0000
  Pd  Pd10      1.0  0.75000  0.37609  0.40716  1.0000
  Pd  Pd11      1.0  0.25000  0.87685  0.89307  1.0000
  Pd  Pd12      1.0  0.75000  0.88357  0.20716  1.0000
  Pd  Pd13      1.0  0.25000  0.11643  0.79284  1.0000
  Pd  Pd14      1.0  0.75000  0.12391  0.90716  1.0000
  Pd  Pd15      1.0  0.75000  0.37671  0.00698  1.0000
  Pd  Pd16      1.0  0.75000  0.12315  0.10693  1.0000
  Pd  Pd17      1.0  0.25000  0.86315  0.69303  1.0000
  Pd  Pd18      1.0  0.25000  0.87609  0.09284  1.0000
  Pd  Pd19      1.0  0.25000  0.62315  0.39307  1.0000
  Pd  Pd20      1.0  0.25000  0.63685  0.19303  1.0000
