data_image0
_chemical_formula_structural       Pd5Tl5
_chemical_formula_sum              "Pd5 Tl5"
_cell_length_a       9.09929
_cell_length_b       9.09929
_cell_length_c       6.00262
_cell_angle_alpha    90
_cell_angle_beta     90
_cell_angle_gamma    141.006

_space_group_name_H-M_alt    "P 1"
_space_group_IT_number       1

loop_
  _space_group_symop_operation_xyz
  'x, y, z'

loop_
  _atom_site_type_symbol
  _atom_site_label
  _atom_site_symmetry_multiplicity
  _atom_site_fract_x
  _atom_site_fract_y
  _atom_site_fract_z
  _atom_site_occupancy
  Pd  Pd1       1.0  0.05990  0.44541  0.00000  1.0000
  Pd  Pd2       1.0  0.98977  0.60056  0.50000  1.0000
  Pd  Pd3       1.0  0.87174  0.87174  0.50000  1.0000
  Pd  Pd4       1.0  0.44541  0.05990  0.00000  1.0000
  Pd  Pd5       1.0  0.60056  0.98977  0.50000  1.0000
  Tl  Tl1       1.0  0.21185  0.43295  0.50000  1.0000
  Tl  Tl2       1.0  0.85621  0.63855  0.00000  1.0000
  Tl  Tl3       1.0  0.63854  0.85621  0.00000  1.0000
  Tl  Tl4       1.0  0.22641  0.22641  0.00000  1.0000
  Tl  Tl5       1.0  0.43295  0.21185  0.50000  1.0000
