data_image0
_chemical_formula_structural       Tl6Pd6
_chemical_formula_sum              "Tl6 Pd6"
_cell_length_a       6.44533
_cell_length_b       6.44533
_cell_length_c       15.0324
_cell_angle_alpha    79.3317
_cell_angle_beta     79.3317
_cell_angle_gamma    51.873

_space_group_name_H-M_alt    "P 1"
_space_group_IT_number       1

loop_
  _space_group_symop_operation_xyz
  'x, y, z'

loop_
  _atom_site_type_symbol
  _atom_site_label
  _atom_site_symmetry_multiplicity
  _atom_site_fract_x
  _atom_site_fract_y
  _atom_site_fract_z
  _atom_site_occupancy
  Tl  Tl1       1.0  0.87177  0.87177  0.41540  1.0000
  Tl  Tl2       1.0  0.51957  0.51957  0.79200  1.0000
  Tl  Tl3       1.0  0.22328  0.22328  0.09738  1.0000
  Tl  Tl4       1.0  0.48043  0.48043  0.20800  1.0000
  Tl  Tl5       1.0  0.77672  0.77672  0.90262  1.0000
  Tl  Tl6       1.0  0.12823  0.12823  0.58460  1.0000
  Pd  Pd1       1.0  0.18189  0.18189  0.33967  1.0000
  Pd  Pd2       1.0  0.09188  0.09188  0.90477  1.0000
  Pd  Pd3       1.0  0.81811  0.81811  0.66033  1.0000
  Pd  Pd4       1.0  0.42319  0.42319  0.59174  1.0000
  Pd  Pd5       1.0  0.57681  0.57681  0.40825  1.0000
  Pd  Pd6       1.0  0.90812  0.90812  0.09524  1.0000
