data_image0
_chemical_formula_structural       Pd4Tl10
_chemical_formula_sum              "Pd4 Tl10"
_cell_length_a       12.3329
_cell_length_b       12.3329
_cell_length_c       8.00794
_cell_angle_alpha    90
_cell_angle_beta     90
_cell_angle_gamma    110.927

_space_group_name_H-M_alt    "P 1"
_space_group_IT_number       1

loop_
  _space_group_symop_operation_xyz
  'x, y, z'

loop_
  _atom_site_type_symbol
  _atom_site_label
  _atom_site_symmetry_multiplicity
  _atom_site_fract_x
  _atom_site_fract_y
  _atom_site_fract_z
  _atom_site_occupancy
  Pd  Pd1       1.0  0.86462  0.86462  0.00000  1.0000
  Pd  Pd2       1.0  0.86462  0.86462  0.50000  1.0000
  Pd  Pd3       1.0  0.13538  0.13538  0.50000  1.0000
  Pd  Pd4       1.0  0.13538  0.13538  0.00000  1.0000
  Tl  Tl1       1.0  0.03997  0.31804  0.75000  1.0000
  Tl  Tl2       1.0  0.38748  0.25103  0.75000  1.0000
  Tl  Tl3       1.0  0.88760  0.11240  0.25000  1.0000
  Tl  Tl4       1.0  0.11240  0.88760  0.75000  1.0000
  Tl  Tl5       1.0  0.25103  0.38748  0.25000  1.0000
  Tl  Tl6       1.0  0.74897  0.61252  0.75000  1.0000
  Tl  Tl7       1.0  0.31804  0.03997  0.25000  1.0000
  Tl  Tl8       1.0  0.61252  0.74897  0.25000  1.0000
  Tl  Tl9       1.0  0.68196  0.96003  0.75000  1.0000
  Tl  Tl10      1.0  0.96003  0.68196  0.25000  1.0000
