data_image0
_chemical_formula_structural       Pd12S12
_chemical_formula_sum              "Pd12 S12"
_cell_length_a       5.81922
_cell_length_b       6.71949
_cell_length_c       8.18336
_cell_angle_alpha    88.9072
_cell_angle_beta     90
_cell_angle_gamma    90

_space_group_name_H-M_alt    "P 1"
_space_group_IT_number       1

loop_
  _space_group_symop_operation_xyz
  'x, y, z'

loop_
  _atom_site_type_symbol
  _atom_site_label
  _atom_site_symmetry_multiplicity
  _atom_site_fract_x
  _atom_site_fract_y
  _atom_site_fract_z
  _atom_site_occupancy
  Pd  Pd1       1.0  0.72572  0.54089  0.92358  1.0000
  Pd  Pd2       1.0  0.22572  0.45911  0.57642  1.0000
  Pd  Pd3       1.0  0.27428  0.45911  0.07642  1.0000
  Pd  Pd4       1.0  0.77428  0.54089  0.42358  1.0000
  Pd  Pd5       1.0  0.29192  0.82639  0.71074  1.0000
  Pd  Pd6       1.0  0.79192  0.17361  0.78926  1.0000
  Pd  Pd7       1.0  0.70808  0.17361  0.28926  1.0000
  Pd  Pd8       1.0  0.20808  0.82639  0.21074  1.0000
  Pd  Pd9       1.0  0.69880  0.90858  0.56203  1.0000
  Pd  Pd10      1.0  0.19880  0.09142  0.93797  1.0000
  Pd  Pd11      1.0  0.30120  0.09142  0.43797  1.0000
  Pd  Pd12      1.0  0.80120  0.90858  0.06203  1.0000
  S   S1        1.0  0.07334  0.40727  0.83883  1.0000
  S   S2        1.0  0.57334  0.59273  0.66117  1.0000
  S   S3        1.0  0.92666  0.59273  0.16117  1.0000
  S   S4        1.0  0.42666  0.40727  0.33883  1.0000
  S   S5        1.0  0.58555  0.24153  0.02435  1.0000
  S   S6        1.0  0.08555  0.75847  0.47565  1.0000
  S   S7        1.0  0.41445  0.75847  0.97565  1.0000
  S   S8        1.0  0.91445  0.24153  0.52435  1.0000
  S   S9        1.0  0.43293  0.13129  0.69020  1.0000
  S   S10       1.0  0.93293  0.86871  0.80980  1.0000
  S   S11       1.0  0.56707  0.86871  0.30980  1.0000
  S   S12       1.0  0.06707  0.13129  0.19020  1.0000
