data_image0
_chemical_formula_structural       Pd2Tl6
_chemical_formula_sum              "Pd2 Tl6"
_cell_length_a       7.83142
_cell_length_b       7.83142
_cell_length_c       11.2322
_cell_angle_alpha    90
_cell_angle_beta     90
_cell_angle_gamma    141.432

_space_group_name_H-M_alt    "P 1"
_space_group_IT_number       1

loop_
  _space_group_symop_operation_xyz
  'x, y, z'

loop_
  _atom_site_type_symbol
  _atom_site_label
  _atom_site_symmetry_multiplicity
  _atom_site_fract_x
  _atom_site_fract_y
  _atom_site_fract_z
  _atom_site_occupancy
  Pd  Pd1       1.0  0.24970  0.75030  0.25000  1.0000
  Pd  Pd2       1.0  0.75030  0.24970  0.75000  1.0000
  Tl  Tl1       1.0  0.64623  0.35378  0.06057  1.0000
  Tl  Tl2       1.0  0.35377  0.64623  0.93943  1.0000
  Tl  Tl3       1.0  0.35377  0.64623  0.56057  1.0000
  Tl  Tl4       1.0  0.64623  0.35378  0.43943  1.0000
  Tl  Tl5       1.0  0.91620  0.08380  0.25000  1.0000
  Tl  Tl6       1.0  0.08380  0.91620  0.75000  1.0000
