data_image0
_chemical_formula_structural       Pd13Tl13
_chemical_formula_sum              "Pd13 Tl13"
_cell_length_a       11.5582
_cell_length_b       11.5582
_cell_length_c       11.5582
_cell_angle_alpha    116.448
_cell_angle_beta     116.448
_cell_angle_gamma    116.448

_space_group_name_H-M_alt    "P 1"
_space_group_IT_number       1

loop_
  _space_group_symop_operation_xyz
  'x, y, z'

loop_
  _atom_site_type_symbol
  _atom_site_label
  _atom_site_symmetry_multiplicity
  _atom_site_fract_x
  _atom_site_fract_y
  _atom_site_fract_z
  _atom_site_occupancy
  Pd  Pd1       1.0  0.09795  0.34603  0.05475  1.0000
  Pd  Pd2       1.0  0.15546  0.75312  0.59854  1.0000
  Pd  Pd3       1.0  0.59854  0.15546  0.75312  1.0000
  Pd  Pd4       1.0  0.84454  0.24688  0.40146  1.0000
  Pd  Pd5       1.0  0.40146  0.84454  0.24688  1.0000
  Pd  Pd6       1.0  0.34603  0.05475  0.09795  1.0000
  Pd  Pd7       1.0  0.94525  0.90205  0.65397  1.0000
  Pd  Pd8       1.0  0.24688  0.40146  0.84454  1.0000
  Pd  Pd9       1.0  0.65397  0.94525  0.90205  1.0000
  Pd  Pd10      1.0  0.75312  0.59854  0.15546  1.0000
  Pd  Pd11      1.0  0.05475  0.09795  0.34603  1.0000
  Pd  Pd12      1.0  0.50000  0.50000  0.50000  1.0000
  Pd  Pd13      1.0  0.90205  0.65397  0.94525  1.0000
  Tl  Tl1       1.0  0.55438  0.59735  0.84373  1.0000
  Tl  Tl2       1.0  0.44562  0.40265  0.15627  1.0000
  Tl  Tl3       1.0  0.09878  0.65535  0.25192  1.0000
  Tl  Tl4       1.0  0.74808  0.90122  0.34465  1.0000
  Tl  Tl5       1.0  0.25192  0.09878  0.65535  1.0000
  Tl  Tl6       1.0  0.90122  0.34465  0.74808  1.0000
  Tl  Tl7       1.0  0.40265  0.15627  0.44562  1.0000
  Tl  Tl8       1.0  0.15627  0.44563  0.40265  1.0000
  Tl  Tl9       1.0  0.65535  0.25192  0.09878  1.0000
  Tl  Tl10      1.0  0.34465  0.74808  0.90122  1.0000
  Tl  Tl11      1.0  0.84373  0.55437  0.59735  1.0000
  Tl  Tl12      1.0  0.00000  0.00000  0.00000  1.0000
  Tl  Tl13      1.0  0.59735  0.84373  0.55437  1.0000
